

        *** GPGPU-Sim Simulator Version 3.2.2  [build 0] ***


GPGPU-Sim PTX: simulation mode 0 (can change with PTX_SIM_MODE_FUNC environment variable:
               1=functional simulation only, 0=detailed performance simulator)
GPGPU-Sim: Configuration options:

-network_mode                           1 # Interconnection network mode
-inter_config_file   config_fermi_islip.icnt # Interconnection network config file
-gpgpu_ptx_use_cuobjdump                    1 # Use cuobjdump to extract ptx and sass from binaries
-gpgpu_experimental_lib_support                    0 # Try to extract code from cuda libraries [Broken because of unknown cudaGetExportTable]
-gpgpu_ptx_convert_to_ptxplus                    0 # Convert SASS (native ISA) to ptxplus and run ptxplus
-gpgpu_ptx_force_max_capability                   20 # Force maximum compute capability
-gpgpu_ptx_inst_debug_to_file                    0 # Dump executed instructions' debug information to file
-gpgpu_ptx_inst_debug_file       inst_debug.txt # Executed instructions' debug output file
-gpgpu_ptx_inst_debug_thread_uid                    1 # Thread UID for executed instructions' debug output
-gpgpu_simd_model                       1 # 1 = post-dominator
-gpgpu_shader_core_pipeline                  8:8 # shader core pipeline config, i.e., {<nthread>:<warpsize>}
-gpgpu_tex_cache:l1  4:128:24,L:R:m:N:L,F:128:4,128:2 # per-shader L1 texture cache  (READ-ONLY) config  {<nsets>:<bsize>:<assoc>,<rep>:<wr>:<alloc>:<wr_alloc>,<mshr>:<N>:<merge>,<mq>:<rf>}
-gpgpu_const_cache:l1 64:64:2,L:R:f:N:L,A:2:32,4 # per-shader L1 constant memory cache  (READ-ONLY) config  {<nsets>:<bsize>:<assoc>,<rep>:<wr>:<alloc>:<wr_alloc>,<mshr>:<N>:<merge>,<mq>} 
-gpgpu_cache:il1     4:128:4,L:R:f:N:L,A:2:32,4 # shader L1 instruction cache config  {<nsets>:<bsize>:<assoc>,<rep>:<wr>:<alloc>:<wr_alloc>,<mshr>:<N>:<merge>,<mq>} 
-gpgpu_cache:dl1                     none # per-shader L1 data cache config  {<nsets>:<bsize>:<assoc>,<rep>:<wr>:<alloc>:<wr_alloc>,<mshr>:<N>:<merge>,<mq> | none}
-gpgpu_cache:dl1PrefL1                 none # per-shader L1 data cache config  {<nsets>:<bsize>:<assoc>,<rep>:<wr>:<alloc>:<wr_alloc>,<mshr>:<N>:<merge>,<mq> | none}
-gpgpu_cache:dl1PreShared                 none # per-shader L1 data cache config  {<nsets>:<bsize>:<assoc>,<rep>:<wr>:<alloc>:<wr_alloc>,<mshr>:<N>:<merge>,<mq> | none}
-gmem_skip_L1D                          0 # global memory access skip L1D cache (implements -Xptxas -dlcm=cg, default=no skip)
-gpgpu_perfect_mem                      0 # enable perfect memory mode (no cache miss)
-n_regfile_gating_group                    4 # group of lanes that should be read/written together)
-gpgpu_clock_gated_reg_file                    0 # enable clock gated reg file for power calculations
-gpgpu_clock_gated_lanes                    0 # enable clock gated lanes for power calculations
-gpgpu_shader_registers                32768 # Number of registers per shader core. Limits number of concurrent CTAs. (default 8192)
-gpgpu_shader_cta                       1 # Maximum number of concurrent CTAs in shader (default 8)
-gpgpu_num_cta_barriers                   16 # Maximum number of named barriers per CTA (default 16)
-gpgpu_n_clusters                       1 # number of processing clusters
-gpgpu_n_cores_per_cluster                    1 # number of simd cores per cluster
-gpgpu_n_cluster_ejection_buffer_size                    8 # number of packets in ejection buffer
-gpgpu_n_ldst_response_buffer_size                    2 # number of response packets in ld/st unit ejection buffer
-gpgpu_shmem_size                   16384 # Size of shared memory per shader core (default 16kB)
-gpgpu_shmem_size                   49152 # Size of shared memory per shader core (default 16kB)
-gpgpu_shmem_size_PrefL1                16384 # Size of shared memory per shader core (default 16kB)
-gpgpu_shmem_size_PrefShared                16384 # Size of shared memory per shader core (default 16kB)
-gpgpu_shmem_num_banks                   32 # Number of banks in the shared memory in each shader core (default 16)
-gpgpu_shmem_limited_broadcast                    0 # Limit shared memory to do one broadcast per cycle (default on)
-gpgpu_shmem_warp_parts                    1 # Number of portions a warp is divided into for shared memory bank conflict check 
-gpgpu_warpdistro_shader                   -1 # Specify which shader core to collect the warp size distribution from
-gpgpu_warp_issue_shader                    0 # Specify which shader core to collect the warp issue distribution from
-gpgpu_local_mem_map                    1 # Mapping from local memory space address to simulated GPU physical address space (default = enabled)
-gpgpu_num_reg_banks                   16 # Number of register banks (default = 8)
-gpgpu_reg_bank_use_warp_id                    0 # Use warp ID in mapping registers to banks (default = off)
-gpgpu_operand_collector_num_units_sp                    6 # number of collector units (default = 4)
-gpgpu_operand_collector_num_units_sfu                    8 # number of collector units (default = 4)
-gpgpu_operand_collector_num_units_mem                    2 # number of collector units (default = 2)
-gpgpu_operand_collector_num_units_gen                    0 # number of collector units (default = 0)
-gpgpu_operand_collector_num_in_ports_sp                    2 # number of collector unit in ports (default = 1)
-gpgpu_operand_collector_num_in_ports_sfu                    1 # number of collector unit in ports (default = 1)
-gpgpu_operand_collector_num_in_ports_mem                    1 # number of collector unit in ports (default = 1)
-gpgpu_operand_collector_num_in_ports_gen                    0 # number of collector unit in ports (default = 0)
-gpgpu_operand_collector_num_out_ports_sp                    2 # number of collector unit in ports (default = 1)
-gpgpu_operand_collector_num_out_ports_sfu                    1 # number of collector unit in ports (default = 1)
-gpgpu_operand_collector_num_out_ports_mem                    1 # number of collector unit in ports (default = 1)
-gpgpu_operand_collector_num_out_ports_gen                    0 # number of collector unit in ports (default = 0)
-gpgpu_coalesce_arch                   13 # Coalescing arch (default = 13, anything else is off for now)
-gpgpu_num_sched_per_core                    1 # Number of warp schedulers per core
-gpgpu_max_insn_issue_per_warp                    2 # Max number of instructions that can be issued per warp in one cycle by scheduler
-gpgpu_simt_core_sim_order                    1 # Select the simulation order of cores in a cluster (0=Fix, 1=Round-Robin)
-gpgpu_pipeline_widths        2,1,1,2,1,1,2 # Pipeline widths ID_OC_SP,ID_OC_SFU,ID_OC_MEM,OC_EX_SP,OC_EX_SFU,OC_EX_MEM,EX_WB
-gpgpu_num_sp_units                     8 # Number of SP units (default=1)
-gpgpu_num_sfu_units                    1 # Number of SF units (default=1)
-gpgpu_num_mem_units                    1 # Number if ldst units (default=1) WARNING: not hooked up to anything
-gpgpu_scheduler                      gto # Scheduler configuration: < lrr | gto | two_level_active > If two_level_active:<num_active_warps>:<inner_prioritization>:<outer_prioritization>For complete list of prioritization values see shader.h enum scheduler_prioritization_typeDefault: gto
-gpgpu_dram_scheduler                    1 # 0 = fifo, 1 = FR-FCFS (defaul)
-gpgpu_dram_partition_queues              8:8:8:8 # i2$:$2d:d2$:$2i
-l2_ideal                               0 # Use a ideal L2 cache that always hit
-gpgpu_cache:dl2                     none # unified banked L2 data cache config  {<nsets>:<bsize>:<assoc>,<rep>:<wr>:<alloc>:<wr_alloc>,<mshr>:<N>:<merge>,<mq>}
-gpgpu_cache:dl2_texture_only                    1 # L2 cache used for texture only
-gpgpu_n_mem                            6 # number of memory modules (e.g. memory controllers) in gpu
-gpgpu_n_sub_partition_per_mchannel                    2 # number of memory subpartition in each memory module
-gpgpu_n_mem_per_ctrlr                    2 # number of memory chips per memory controller
-gpgpu_memlatency_stat                   14 # track and display latency statistics 0x2 enables MC, 0x4 enables queue logs
-gpgpu_frfcfs_dram_sched_queue_size                   64 # 0 = unlimited (default); # entries per chip
-gpgpu_dram_return_queue_size                  464 # 0 = unlimited (default); # entries per chip
-gpgpu_dram_buswidth                    4 # default = 4 bytes (8 bytes per cycle at DDR)
-gpgpu_dram_burst_length                    8 # Burst length of each DRAM request (default = 4 data bus cycle)
-dram_data_command_freq_ratio                    4 # Frequency ratio between DRAM data bus and command bus (default = 2 times, i.e. DDR)
-gpgpu_dram_timing_opt nbk=16:CCD=2:RRD=6:RCD=12:RAS=28:RP=12:RC=40: CL=12:WL=4:CDLR=5:WR=12:nbkgrp=4:CCDL=3:RTPL=2 # DRAM timing parameters = {nbk:tCCD:tRRD:tRCD:tRAS:tRP:tRC:CL:WL:tCDLR:tWR:nbkgrp:tCCDL:tRTPL}
-rop_latency                          120 # ROP queue latency (default 85)
-dram_latency                         100 # DRAM latency (default 30)
-gpgpu_mem_addr_mapping dramid@8;00000000.00000000.00000000.00000000.0000RRRR.RRRRRRRR.BBBCCCCB.CCSSSSSS # mapping memory address to dram model {dramid@<start bit>;<memory address map>}
-gpgpu_mem_addr_test                    0 # run sweep test to check address mapping for aliased address
-gpgpu_mem_address_mask                    1 # 0 = old addressing mask, 1 = new addressing mask, 2 = new add. mask + flipped bank sel and chip sel bits
-gpuwattch_xml_file  gpuwattch_gtx480.xml # GPUWattch XML file
-power_simulation_enabled                    1 # Turn on power simulator (1=On, 0=Off)
-power_per_cycle_dump                    0 # Dump detailed power output each cycle
-power_trace_enabled                    0 # produce a file for the power trace (1=On, 0=Off)
-power_trace_zlevel                     6 # Compression level of the power trace output log (0=no comp, 9=highest)
-steady_power_levels_enabled                    0 # produce a file for the steady power levels (1=On, 0=Off)
-steady_state_definition                  8:4 # allowed deviation:number of samples
-gpgpu_max_cycle                        0 # terminates gpu simulation early (0 = no limit)
-gpgpu_max_insn                         0 # terminates gpu simulation early (0 = no limit)
-gpgpu_max_cta                          0 # terminates gpu simulation early (0 = no limit)
-gpgpu_runtime_stat                   500 # display runtime statistics such as dram utilization {<freq>:<flag>}
-liveness_message_freq                    1 # Minimum number of seconds between simulation liveness messages (0 = always print)
-gpgpu_flush_l1_cache                    0 # Flush L1 cache at the end of each kernel call
-gpgpu_flush_l2_cache                    0 # Flush L2 cache at the end of each kernel call
-gpgpu_deadlock_detect                    1 # Stop the simulation at deadlock (1=on (default), 0=off)
-gpgpu_ptx_instruction_classification                    0 # if enabled will classify ptx instruction types per kernel (Max 255 kernels now)
-gpgpu_ptx_sim_mode                     0 # Select between Performance (default) or Functional simulation (1)
-gpgpu_clock_domains 700.0:4200.0:1400.0:2400.0 # Clock Domain Frequencies in MhZ {<Core Clock>:<ICNT Clock>:<L2 Clock>:<DRAM Clock>}
-gpgpu_max_concurrent_kernel                    8 # maximum kernels that can run concurrently on GPU
-gpgpu_cflog_interval                    0 # Interval between each snapshot in control flow logger
-visualizer_enabled                     0 # Turn on visualizer output (1=On, 0=Off)
-visualizer_outputfile                 NULL # Specifies the output log file for visualizer
-visualizer_zlevel                      6 # Compression level of the visualizer output log (0=no comp, 9=highest)
-trace_enabled                          0 # Turn on traces
-trace_components    WARP_SCHEDULER,SCOREBOARD # comma seperated list of traces to enable. Complete list found in trace_streams.tup. Default none
-trace_sampling_core                    0 # The core which is printed using CORE_DPRINTF. Default 0
-trace_sampling_memory_partition                   -1 # The memory partition which is printed using MEMPART_DPRINTF. Default -1 (i.e. all)
-gpgpu_ramulator_config Ramulator_configs/DDR4-2400R-config.cfg #  Ramulator config file address.
-gpgpu_ramulator_cache_line_size                   64 #  Ramulator cache line size.
-enable_ptx_file_line_stats                    1 # Turn on PTX source line statistic profiling. (1 = On)
-ptx_line_stats_filename gpgpu_inst_stats.txt # Output file for PTX source line statistics.
-save_embedded_ptx                      0 # saves ptx files embedded in binary as <n>.ptx
-keep                                   0 # keep intermediate files created by GPGPU-Sim when interfacing with external programs
-gpgpu_ptx_save_converted_ptxplus                    0 # Saved converted ptxplus to a file
-ptx_opcode_latency_int         4,13,4,5,145 # Opcode latencies for integers <ADD,MAX,MUL,MAD,DIV>Default 1,1,19,25,145
-ptx_opcode_latency_fp          4,13,4,5,39 # Opcode latencies for single precision floating points <ADD,MAX,MUL,MAD,DIV>Default 1,1,1,1,30
-ptx_opcode_latency_dp         8,19,8,8,330 # Opcode latencies for double precision floating points <ADD,MAX,MUL,MAD,DIV>Default 8,8,8,8,335
-ptx_opcode_initiation_int            1,2,2,1,8 # Opcode initiation intervals for integers <ADD,MAX,MUL,MAD,DIV>Default 1,1,4,4,32
-ptx_opcode_initiation_fp            1,2,1,1,4 # Opcode initiation intervals for single precision floating points <ADD,MAX,MUL,MAD,DIV>Default 1,1,1,1,5
-ptx_opcode_initiation_dp         8,16,8,8,130 # Opcode initiation intervals for double precision floating points <ADD,MAX,MUL,MAD,DIV>Default 8,8,8,8,130
DRAM Timing Options:
nbk                                    16 # number of banks
CCD                                     2 # column to column delay
RRD                                     6 # minimal delay between activation of rows in different banks
RCD                                    12 # row to column delay
RAS                                    28 # time needed to activate row
RP                                     12 # time needed to precharge (deactivate) row
RC                                     40 # row cycle time
CDLR                                    5 # switching from write to read (changes tWTR)
WR                                     12 # last data-in to row precharge
CL                                     12 # CAS latency
WL                                      4 # Write latency
nbkgrp                                  4 # number of bank groups
CCDL                                    3 # column to column delay between accesses to different bank groups
RTPL                                    2 # read to precharge delay between accesses to different bank groups
Total number of memory sub partition = 12
addr_dec_mask[CHIP]  = 0000000000000000 	high:64 low:0
addr_dec_mask[BK]    = 000000000000e100 	high:16 low:8
addr_dec_mask[ROW]   = 000000000fff0000 	high:28 low:16
addr_dec_mask[COL]   = 0000000000001eff 	high:13 low:0
addr_dec_mask[BURST] = 000000000000003f 	high:6 low:0
sub_partition_id_mask = 0000000000000100
GPGPU-Sim uArch: clock freqs: 700000000.000000:4200000000.000000:1400000000.000000:2400000000.000000
GPGPU-Sim uArch: clock periods: 0.00000000142857142857:0.00000000023809523810:0.00000000071428571429:0.00000000041666666667
*** Initializing Memory Statistics ***
GPGPU-Sim uArch: interconnect node map (shaderID+MemID to icntID)
GPGPU-Sim uArch: Memory nodes ID start from index: 1
GPGPU-Sim uArch:    0   1   2
GPGPU-Sim uArch:    3   4   5
GPGPU-Sim uArch:    6   7   8
GPGPU-Sim uArch:    9  10  11
GPGPU-Sim uArch:   12
GPGPU-Sim uArch: interconnect node reverse map (icntID to shaderID+MemID)
GPGPU-Sim uArch: Memory nodes start from ID: 1
GPGPU-Sim uArch:    0   1   2
GPGPU-Sim uArch:    3   4   5
GPGPU-Sim uArch:    6   7   8
GPGPU-Sim uArch:    9  10  11
GPGPU-Sim uArch:   12
c7a71930d452603553bc1990e2c40cd7  /home/gpgpu-sim/Mondrian_test/a.out
GPGPU-Sim uArch: performance model initialization complete.
GPGPU-Sim PTX: __cudaRegisterFatBinary, fat_cubin_handle = 1, filename=temp.cu
self exe links to: /home/gpgpu-sim/Mondrian_test/a.out
Running md5sum using "md5sum /home/gpgpu-sim/Mondrian_test/a.out "
Running cuobjdump using "$CUDA_INSTALL_PATH/bin/cuobjdump -ptx -elf -sass /home/gpgpu-sim/Mondrian_test/a.out > _cuobjdump_complete_output_DLlxJB"
Parsing file _cuobjdump_complete_output_DLlxJB
######### cuobjdump parser ########
## Adding new section ELF
Adding arch: sm_10
Adding identifier: temp.cu
## Adding new section PTX
Adding ptx filename: _cuobjdump_1.ptx
Adding arch: sm_10
Adding identifier: temp.cu
Done parsing!!!
GPGPU-Sim PTX: __cudaRegisterFunction _Z5saxpyjjjjjjjjjjjjPj : hostFun 0x0x400d3d, fat_cubin_handle = 1
GPGPU-Sim PTX: instruction assembly for function '_Z5saxpyjjjjjjjjjjjjPj'...   done.
GPGPU-Sim PTX: finding reconvergence points for '_Z5saxpyjjjjjjjjjjjjPj'...
GPGPU-Sim PTX: Finding dominators for '_Z5saxpyjjjjjjjjjjjjPj'...
GPGPU-Sim PTX: Finding immediate dominators for '_Z5saxpyjjjjjjjjjjjjPj'...
GPGPU-Sim PTX: Finding postdominators for '_Z5saxpyjjjjjjjjjjjjPj'...
GPGPU-Sim PTX: Finding immediate postdominators for '_Z5saxpyjjjjjjjjjjjjPj'...
GPGPU-Sim PTX: pre-decoding instructions for '_Z5saxpyjjjjjjjjjjjjPj'...
GPGPU-Sim PTX: reconvergence points for _Z5saxpyjjjjjjjjjjjjPj...
GPGPU-Sim PTX:  1 (potential) branch divergence @  PC=0x038 (_1.ptx:78) @%p1 bra $Lt_0_1026;
GPGPU-Sim PTX:    immediate post dominator      @  PC=0x090 (_1.ptx:96) exit;
GPGPU-Sim PTX: ... end of reconvergence points for _Z5saxpyjjjjjjjjjjjjPj
GPGPU-Sim PTX: ... done pre-decoding instructions for '_Z5saxpyjjjjjjjjjjjjPj'.
GPGPU-Sim PTX: finished parsing EMBEDDED .ptx file _1.ptx
Adding _cuobjdump_1.ptx with cubin handle 1
GPGPU-Sim PTX: extracting embedded .ptx to temporary file "_ptx_hUDLXN"
Running: cat _ptx_hUDLXN | sed 's/.version 1.5/.version 1.4/' | sed 's/, texmode_independent//' | sed 's/\(\.extern \.const\[1\] .b8 \w\+\)\[\]/\1\[1\]/' | sed 's/const\[.\]/const\[0\]/g' > _ptx2_lL50b0
GPGPU-Sim PTX: generating ptxinfo using "$CUDA_INSTALL_PATH/bin/ptxas --gpu-name=sm_20 -v _ptx2_lL50b0 --output-file  /dev/null 2> _ptx_hUDLXNinfo"
GPGPU-Sim PTX: Kernel '_Z5saxpyjjjjjjjjjjjjPj' : regs=6, lmem=0, smem=0, cmem=88
GPGPU-Sim PTX: removing ptxinfo using "rm -f _ptx_hUDLXN _ptx2_lL50b0 _ptx_hUDLXNinfo"
GPGPU-Sim PTX: loading globals with explicit initializers... 
GPGPU-Sim PTX: finished loading globals (0 bytes total).
GPGPU-Sim PTX: loading constants with explicit initializers...  done.

GPGPU-Sim PTX: cudaLaunch for 0x0x400d3d (mode=performance simulation) on stream 0
GPGPU-Sim PTX: pushing kernel '_Z5saxpyjjjjjjjjjjjjPj' to stream 0, gridDim= (1,1,1) blockDim = (8,1,1) 
kernel_name = 
kernel_launch_uid = 
gpu_sim_cycle = 0
gpu_sim_insn = 0
gpu_ipc =         -nan
gpu_tot_sim_cycle = 0
gpu_tot_sim_insn = 0
gpu_tot_ipc =         -nan
gpu_tot_issued_cta = 0
gpu_stall_dramfull = 0
gpu_stall_icnt2sh    = 0
gpu_total_sim_rate=0

========= Core cache stats =========
L1I_cache:
	L1I_total_cache_accesses = 0
	L1I_total_cache_misses = 0
	L1I_total_cache_pending_hits = 0
	L1I_total_cache_reservation_fails = 0
L1C_cache:
	L1C_total_cache_accesses = 0
	L1C_total_cache_misses = 0
	L1C_total_cache_pending_hits = 0
	L1C_total_cache_reservation_fails = 0
L1T_cache:
	L1T_total_cache_accesses = 0
	L1T_total_cache_misses = 0
	L1T_total_cache_pending_hits = 0
	L1T_total_cache_reservation_fails = 0

Total_core_cache_stats:
Shader 0 warp_id issue ditsribution:
warp_id:

distro:

gpgpu_n_tot_thrd_icount = 0
gpgpu_n_tot_w_icount = 0
gpgpu_n_stall_shd_mem = 0
gpgpu_n_mem_read_local = 0
gpgpu_n_mem_write_local = 0
gpgpu_n_mem_read_global = 0
gpgpu_n_mem_write_global = 0
gpgpu_n_mem_texture = 0
gpgpu_n_mem_const = 0
gpgpu_n_load_insn  = 0
gpgpu_n_store_insn = 0
gpgpu_n_shmem_insn = 0
gpgpu_n_tex_insn = 0
gpgpu_n_const_mem_insn = 0
gpgpu_n_param_mem_insn = 0
gpgpu_n_shmem_bkconflict = 0
gpgpu_n_cache_bkconflict = 0
gpgpu_n_intrawarp_mshr_merge = 0
gpgpu_n_cmem_portconflict = 0
gpgpu_stall_shd_mem[c_mem][bk_conf] = 0
gpgpu_stall_shd_mem[c_mem][mshr_rc] = 0
gpgpu_stall_shd_mem[c_mem][icnt_rc] = 0
gpgpu_stall_shd_mem[c_mem][data_port_stall] = 0
gpgpu_stall_shd_mem[t_mem][mshr_rc] = 0
gpgpu_stall_shd_mem[t_mem][icnt_rc] = 0
gpgpu_stall_shd_mem[t_mem][data_port_stall] = 0
gpgpu_stall_shd_mem[s_mem][bk_conf] = 0
gpgpu_stall_shd_mem[gl_mem][bk_conf] = 0
gpgpu_stall_shd_mem[gl_mem][coal_stall] = 0
gpgpu_stall_shd_mem[gl_mem][data_port_stall] = 0
gpgpu_stall_shd_mem[g_mem_ld][mshr_rc] = 0
gpgpu_stall_shd_mem[g_mem_ld][icnt_rc] = 0
gpgpu_stall_shd_mem[g_mem_ld][wb_icnt_rc] = 0
gpgpu_stall_shd_mem[g_mem_ld][wb_rsrv_fail] = 0
gpgpu_stall_shd_mem[g_mem_st][mshr_rc] = 0
gpgpu_stall_shd_mem[g_mem_st][icnt_rc] = 0
gpgpu_stall_shd_mem[g_mem_st][wb_icnt_rc] = 0
gpgpu_stall_shd_mem[g_mem_st][wb_rsrv_fail] = 0
gpgpu_stall_shd_mem[l_mem_ld][mshr_rc] = 0
gpgpu_stall_shd_mem[l_mem_ld][icnt_rc] = 0
gpgpu_stall_shd_mem[l_mem_ld][wb_icnt_rc] = 0
gpgpu_stall_shd_mem[l_mem_ld][wb_rsrv_fail] = 0
gpgpu_stall_shd_mem[l_mem_st][mshr_rc] = 0
gpgpu_stall_shd_mem[l_mem_st][icnt_rc] = 0
gpgpu_stall_shd_mem[l_mem_ld][wb_icnt_rc] = 0
gpgpu_stall_shd_mem[l_mem_ld][wb_rsrv_fail] = 0
gpgpu_stall_shd_mem[g_mem_ld][stream_buffer_read_stall] = 0
gpgpu_stall_shd_mem[g_mem_st][stream_buffer_write_stall] = 0
gpu_reg_bank_conflict_stalls = 0
Warp Occupancy Distribution:
Stall:0	W0_Idle:0	W0_Scoreboard:0	W1:0	W2:0	W3:0	W4:0	W5:0	W6:0	W7:0	W8:0
maxmrqlatency = 0 
maxdqlatency = 0 
maxmflatency = 0 
max_icnt2mem_latency = 0 
max_icnt2sh_latency = 0 
mrq_lat_table:0 	0 	0 	0 	0 	0 	0 	0 	0 	0 	0 	0 	0 	0 	0 	0 	0 	0 	0 	0 	0 	0 	0 	0 	0 	0 	0 	0 	0 	0 	0 	0 	
dq_lat_table:0 	0 	0 	0 	0 	0 	0 	0 	0 	0 	0 	0 	0 	0 	0 	0 	0 	0 	0 	0 	0 	0 	0 	0 	0 	0 	0 	0 	0 	0 	0 	0 	
mf_lat_table:0 	0 	0 	0 	0 	0 	0 	0 	0 	0 	0 	0 	0 	0 	0 	0 	0 	0 	0 	0 	0 	0 	0 	0 	0 	0 	0 	0 	0 	0 	0 	0 	
icnt2mem_lat_table:0 	0 	0 	0 	0 	0 	0 	0 	0 	0 	0 	0 	0 	0 	0 	0 	0 	0 	0 	0 	0 	0 	0 	0 	
icnt2sh_lat_table:0 	0 	0 	0 	0 	0 	0 	0 	0 	0 	0 	0 	0 	0 	0 	0 	0 	0 	0 	0 	0 	0 	0 	0 	
mf_lat_pw_table:0 	0 	0 	0 	0 	0 	0 	0 	0 	0 	0 	0 	0 	0 	0 	0 	0 	0 	0 	0 	0 	0 	0 	0 	0 	0 	0 	0 	0 	0 	0 	0 	
maximum concurrent accesses to same row:
dram[0]:         0         0         0         0         0         0         0         0         0         0         0         0         0         0         0         0 
dram[1]:         0         0         0         0         0         0         0         0         0         0         0         0         0         0         0         0 
dram[2]:         0         0         0         0         0         0         0         0         0         0         0         0         0         0         0         0 
dram[3]:         0         0         0         0         0         0         0         0         0         0         0         0         0         0         0         0 
dram[4]:         0         0         0         0         0         0         0         0         0         0         0         0         0         0         0         0 
dram[5]:         0         0         0         0         0         0         0         0         0         0         0         0         0         0         0         0 
maximum service time to same row:
dram[0]:         0         0         0         0         0         0         0         0         0         0         0         0         0         0         0         0 
dram[1]:         0         0         0         0         0         0         0         0         0         0         0         0         0         0         0         0 
dram[2]:         0         0         0         0         0         0         0         0         0         0         0         0         0         0         0         0 
dram[3]:         0         0         0         0         0         0         0         0         0         0         0         0         0         0         0         0 
dram[4]:         0         0         0         0         0         0         0         0         0         0         0         0         0         0         0         0 
dram[5]:         0         0         0         0         0         0         0         0         0         0         0         0         0         0         0         0 
average row accesses per activate:
dram[0]:      -nan      -nan      -nan      -nan      -nan      -nan      -nan      -nan      -nan      -nan      -nan      -nan      -nan      -nan      -nan      -nan 
dram[1]:      -nan      -nan      -nan      -nan      -nan      -nan      -nan      -nan      -nan      -nan      -nan      -nan      -nan      -nan      -nan      -nan 
dram[2]:      -nan      -nan      -nan      -nan      -nan      -nan      -nan      -nan      -nan      -nan      -nan      -nan      -nan      -nan      -nan      -nan 
dram[3]:      -nan      -nan      -nan      -nan      -nan      -nan      -nan      -nan      -nan      -nan      -nan      -nan      -nan      -nan      -nan      -nan 
dram[4]:      -nan      -nan      -nan      -nan      -nan      -nan      -nan      -nan      -nan      -nan      -nan      -nan      -nan      -nan      -nan      -nan 
dram[5]:      -nan      -nan      -nan      -nan      -nan      -nan      -nan      -nan      -nan      -nan      -nan      -nan      -nan      -nan      -nan      -nan 
average row locality = 0/0 = -nan
number of total memory accesses made:
dram[0]:         0         0         0         0         0         0         0         0         0         0         0         0         0         0         0         0 
dram[1]:         0         0         0         0         0         0         0         0         0         0         0         0         0         0         0         0 
dram[2]:         0         0         0         0         0         0         0         0         0         0         0         0         0         0         0         0 
dram[3]:         0         0         0         0         0         0         0         0         0         0         0         0         0         0         0         0 
dram[4]:         0         0         0         0         0         0         0         0         0         0         0         0         0         0         0         0 
dram[5]:         0         0         0         0         0         0         0         0         0         0         0         0         0         0         0         0 
total accesses: 0
min_bank_accesses = 0!
min_chip_accesses = 0!
number of total read accesses:
dram[0]:         0         0         0         0         0         0         0         0         0         0         0         0         0         0         0         0 
dram[1]:         0         0         0         0         0         0         0         0         0         0         0         0         0         0         0         0 
dram[2]:         0         0         0         0         0         0         0         0         0         0         0         0         0         0         0         0 
dram[3]:         0         0         0         0         0         0         0         0         0         0         0         0         0         0         0         0 
dram[4]:         0         0         0         0         0         0         0         0         0         0         0         0         0         0         0         0 
dram[5]:         0         0         0         0         0         0         0         0         0         0         0         0         0         0         0         0 
total reads: 0
min_bank_accesses = 0!
min_chip_accesses = 0!
number of total write accesses:
dram[0]:         0         0         0         0         0         0         0         0         0         0         0         0         0         0         0         0 
dram[1]:         0         0         0         0         0         0         0         0         0         0         0         0         0         0         0         0 
dram[2]:         0         0         0         0         0         0         0         0         0         0         0         0         0         0         0         0 
dram[3]:         0         0         0         0         0         0         0         0         0         0         0         0         0         0         0         0 
dram[4]:         0         0         0         0         0         0         0         0         0         0         0         0         0         0         0         0 
dram[5]:         0         0         0         0         0         0         0         0         0         0         0         0         0         0         0         0 
total reads: 0
min_bank_accesses = 0!
min_chip_accesses = 0!
average mf latency per bank:
dram[0]:     none      none      none      none      none      none      none      none      none      none      none      none      none      none      none      none  
dram[1]:     none      none      none      none      none      none      none      none      none      none      none      none      none      none      none      none  
dram[2]:     none      none      none      none      none      none      none      none      none      none      none      none      none      none      none      none  
dram[3]:     none      none      none      none      none      none      none      none      none      none      none      none      none      none      none      none  
dram[4]:     none      none      none      none      none      none      none      none      none      none      none      none      none      none      none      none  
dram[5]:     none      none      none      none      none      none      none      none      none      none      none      none      none      none      none      none  
maximum mf latency per bank:
dram[0]:          0         0         0         0         0         0         0         0         0         0         0         0         0         0         0         0
dram[1]:          0         0         0         0         0         0         0         0         0         0         0         0         0         0         0         0
dram[2]:          0         0         0         0         0         0         0         0         0         0         0         0         0         0         0         0
dram[3]:          0         0         0         0         0         0         0         0         0         0         0         0         0         0         0         0
dram[4]:          0         0         0         0         0         0         0         0         0         0         0         0         0         0         0         0
dram[5]:          0         0         0         0         0         0         0         0         0         0         0         0         0         0         0         0
Memory Partition 0: 
In Dram Latency Queue (total = 0): 
DRAM[0]: 16 bks, busW=4 BL=8 CL=12, tRRD=2 tCCD=6, tRCD=12 tRAS=28 tRP=12 tRC=40
n_cmd=0 n_nop=0 n_act=0 n_pre=0 n_req=0 n_rd=0 n_write=0 bw_util=-nan
n_activity=0 dram_eff=-nan
bk0: 0a 0i bk1: 0a 0i bk2: 0a 0i bk3: 0a 0i bk4: 0a 0i bk5: 0a 0i bk6: 0a 0i bk7: 0a 0i bk8: 0a 0i bk9: 0a 0i bk10: 0a 0i bk11: 0a 0i bk12: 0a 0i bk13: 0a 0i bk14: 0a 0i bk15: 0a 0i 
dram_util_bins: 0 0 0 0 0 0 0 0 0 0
dram_eff_bins: 0 0 0 0 0 0 0 0 0 0
mrqq: max=0 avg=-nan
Memory Partition 1: 
In Dram Latency Queue (total = 0): 
DRAM[1]: 16 bks, busW=4 BL=8 CL=12, tRRD=2 tCCD=6, tRCD=12 tRAS=28 tRP=12 tRC=40
n_cmd=0 n_nop=0 n_act=0 n_pre=0 n_req=0 n_rd=0 n_write=0 bw_util=-nan
n_activity=0 dram_eff=-nan
bk0: 0a 0i bk1: 0a 0i bk2: 0a 0i bk3: 0a 0i bk4: 0a 0i bk5: 0a 0i bk6: 0a 0i bk7: 0a 0i bk8: 0a 0i bk9: 0a 0i bk10: 0a 0i bk11: 0a 0i bk12: 0a 0i bk13: 0a 0i bk14: 0a 0i bk15: 0a 0i 
dram_util_bins: 0 0 0 0 0 0 0 0 0 0
dram_eff_bins: 0 0 0 0 0 0 0 0 0 0
mrqq: max=0 avg=-nan
Memory Partition 2: 
In Dram Latency Queue (total = 0): 
DRAM[2]: 16 bks, busW=4 BL=8 CL=12, tRRD=2 tCCD=6, tRCD=12 tRAS=28 tRP=12 tRC=40
n_cmd=0 n_nop=0 n_act=0 n_pre=0 n_req=0 n_rd=0 n_write=0 bw_util=-nan
n_activity=0 dram_eff=-nan
bk0: 0a 0i bk1: 0a 0i bk2: 0a 0i bk3: 0a 0i bk4: 0a 0i bk5: 0a 0i bk6: 0a 0i bk7: 0a 0i bk8: 0a 0i bk9: 0a 0i bk10: 0a 0i bk11: 0a 0i bk12: 0a 0i bk13: 0a 0i bk14: 0a 0i bk15: 0a 0i 
dram_util_bins: 0 0 0 0 0 0 0 0 0 0
dram_eff_bins: 0 0 0 0 0 0 0 0 0 0
mrqq: max=0 avg=-nan
Memory Partition 3: 
In Dram Latency Queue (total = 0): 
DRAM[3]: 16 bks, busW=4 BL=8 CL=12, tRRD=2 tCCD=6, tRCD=12 tRAS=28 tRP=12 tRC=40
n_cmd=0 n_nop=0 n_act=0 n_pre=0 n_req=0 n_rd=0 n_write=0 bw_util=-nan
n_activity=0 dram_eff=-nan
bk0: 0a 0i bk1: 0a 0i bk2: 0a 0i bk3: 0a 0i bk4: 0a 0i bk5: 0a 0i bk6: 0a 0i bk7: 0a 0i bk8: 0a 0i bk9: 0a 0i bk10: 0a 0i bk11: 0a 0i bk12: 0a 0i bk13: 0a 0i bk14: 0a 0i bk15: 0a 0i 
dram_util_bins: 0 0 0 0 0 0 0 0 0 0
dram_eff_bins: 0 0 0 0 0 0 0 0 0 0
mrqq: max=0 avg=-nan
Memory Partition 4: 
In Dram Latency Queue (total = 0): 
DRAM[4]: 16 bks, busW=4 BL=8 CL=12, tRRD=2 tCCD=6, tRCD=12 tRAS=28 tRP=12 tRC=40
n_cmd=0 n_nop=0 n_act=0 n_pre=0 n_req=0 n_rd=0 n_write=0 bw_util=-nan
n_activity=0 dram_eff=-nan
bk0: 0a 0i bk1: 0a 0i bk2: 0a 0i bk3: 0a 0i bk4: 0a 0i bk5: 0a 0i bk6: 0a 0i bk7: 0a 0i bk8: 0a 0i bk9: 0a 0i bk10: 0a 0i bk11: 0a 0i bk12: 0a 0i bk13: 0a 0i bk14: 0a 0i bk15: 0a 0i 
dram_util_bins: 0 0 0 0 0 0 0 0 0 0
dram_eff_bins: 0 0 0 0 0 0 0 0 0 0
mrqq: max=0 avg=-nan
Memory Partition 5: 
In Dram Latency Queue (total = 0): 
DRAM[5]: 16 bks, busW=4 BL=8 CL=12, tRRD=2 tCCD=6, tRCD=12 tRAS=28 tRP=12 tRC=40
n_cmd=0 n_nop=0 n_act=0 n_pre=0 n_req=0 n_rd=0 n_write=0 bw_util=-nan
n_activity=0 dram_eff=-nan
bk0: 0a 0i bk1: 0a 0i bk2: 0a 0i bk3: 0a 0i bk4: 0a 0i bk5: 0a 0i bk6: 0a 0i bk7: 0a 0i bk8: 0a 0i bk9: 0a 0i bk10: 0a 0i bk11: 0a 0i bk12: 0a 0i bk13: 0a 0i bk14: 0a 0i bk15: 0a 0i 
dram_util_bins: 0 0 0 0 0 0 0 0 0 0
dram_eff_bins: 0 0 0 0 0 0 0 0 0 0
mrqq: max=0 avg=-nan

icnt_total_pkts_mem_to_simt=0
icnt_total_pkts_simt_to_mem=0
LD_mem_lat_dist  0 0 0 0 0 0 0 0 0 0 0 0 0 0 0 0 0 0 0 0 0 0 0 0 0 0 0
ST_mem_lat_dist  0 0 0 0 0 0 0 0 0 0 0 0 0 0 0 0 0 0 0 0 0 0 0 0 0 0 0
----------------------------Interconnect-DETAILS--------------------------------
Class 0:
Packet latency average = -nan
	minimum = nan
	maximum = -nan
Network latency average = -nan
	minimum = nan
	maximum = -nan
Slowest packet = -1
Flit latency average = -nan
	minimum = nan
	maximum = -nan
Slowest flit = -1
Fragmentation average = -nan
	minimum = nan
	maximum = -nan
Injected packet rate average = -nan
	minimum = -nan (at node 0)
	maximum = -nan (at node 0)
Accepted packet rate average = -nan
	minimum = -nan (at node 0)
	maximum = -nan (at node 0)
Injected flit rate average = -nan
	minimum = -nan (at node 0)
	maximum = -nan (at node 0)
Accepted flit rate average= -nan
	minimum = -nan (at node 0)
	maximum = -nan (at node 0)
Injected packet length average = -nan
Accepted packet length average = -nan
Total in-flight flits = 0 (0 measured)
====== Overall Traffic Statistics ======
====== Traffic class 0 ======
Packet latency average = -nan (1 samples)
	minimum = nan (1 samples)
	maximum = -nan (1 samples)
Network latency average = -nan (1 samples)
	minimum = nan (1 samples)
	maximum = -nan (1 samples)
Flit latency average = -nan (1 samples)
	minimum = nan (1 samples)
	maximum = -nan (1 samples)
Fragmentation average = -nan (1 samples)
	minimum = nan (1 samples)
	maximum = -nan (1 samples)
Injected packet rate average = -nan (1 samples)
	minimum = -nan (1 samples)
	maximum = -nan (1 samples)
Accepted packet rate average = -nan (1 samples)
	minimum = -nan (1 samples)
	maximum = -nan (1 samples)
Injected flit rate average = -nan (1 samples)
	minimum = -nan (1 samples)
	maximum = -nan (1 samples)
Accepted flit rate average = -nan (1 samples)
	minimum = -nan (1 samples)
	maximum = -nan (1 samples)
Injected packet size average = -nan (1 samples)
Accepted packet size average = -nan (1 samples)
Hops average = -nan (1 samples)
----------------------------END-of-Interconnect-DETAILS-------------------------
kernel_name = 
kernel_launch_uid = 
gpu_sim_cycle = 0
gpu_sim_insn = 0
gpu_ipc =         -nan
gpu_tot_sim_cycle = 0
gpu_tot_sim_insn = 0
gpu_tot_ipc =         -nan
gpu_tot_issued_cta = 0
gpu_stall_dramfull = 0
gpu_stall_icnt2sh    = 0
gpu_total_sim_rate=0

========= Core cache stats =========
L1I_cache:
	L1I_total_cache_accesses = 0
	L1I_total_cache_misses = 0
	L1I_total_cache_pending_hits = 0
	L1I_total_cache_reservation_fails = 0
L1C_cache:
	L1C_total_cache_accesses = 0
	L1C_total_cache_misses = 0
	L1C_total_cache_pending_hits = 0
	L1C_total_cache_reservation_fails = 0
L1T_cache:
	L1T_total_cache_accesses = 0
	L1T_total_cache_misses = 0
	L1T_total_cache_pending_hits = 0
	L1T_total_cache_reservation_fails = 0

Total_core_cache_stats:
Shader 0 warp_id issue ditsribution:
warp_id:

distro:

gpgpu_n_tot_thrd_icount = 0
gpgpu_n_tot_w_icount = 0
gpgpu_n_stall_shd_mem = 0
gpgpu_n_mem_read_local = 0
gpgpu_n_mem_write_local = 0
gpgpu_n_mem_read_global = 0
gpgpu_n_mem_write_global = 0
gpgpu_n_mem_texture = 0
gpgpu_n_mem_const = 0
gpgpu_n_load_insn  = 0
gpgpu_n_store_insn = 0
gpgpu_n_shmem_insn = 0
gpgpu_n_tex_insn = 0
gpgpu_n_const_mem_insn = 0
gpgpu_n_param_mem_insn = 0
gpgpu_n_shmem_bkconflict = 0
gpgpu_n_cache_bkconflict = 0
gpgpu_n_intrawarp_mshr_merge = 0
gpgpu_n_cmem_portconflict = 0
gpgpu_stall_shd_mem[c_mem][bk_conf] = 0
gpgpu_stall_shd_mem[c_mem][mshr_rc] = 0
gpgpu_stall_shd_mem[c_mem][icnt_rc] = 0
gpgpu_stall_shd_mem[c_mem][data_port_stall] = 0
gpgpu_stall_shd_mem[t_mem][mshr_rc] = 0
gpgpu_stall_shd_mem[t_mem][icnt_rc] = 0
gpgpu_stall_shd_mem[t_mem][data_port_stall] = 0
gpgpu_stall_shd_mem[s_mem][bk_conf] = 0
gpgpu_stall_shd_mem[gl_mem][bk_conf] = 0
gpgpu_stall_shd_mem[gl_mem][coal_stall] = 0
gpgpu_stall_shd_mem[gl_mem][data_port_stall] = 0
gpgpu_stall_shd_mem[g_mem_ld][mshr_rc] = 0
gpgpu_stall_shd_mem[g_mem_ld][icnt_rc] = 0
gpgpu_stall_shd_mem[g_mem_ld][wb_icnt_rc] = 0
gpgpu_stall_shd_mem[g_mem_ld][wb_rsrv_fail] = 0
gpgpu_stall_shd_mem[g_mem_st][mshr_rc] = 0
gpgpu_stall_shd_mem[g_mem_st][icnt_rc] = 0
gpgpu_stall_shd_mem[g_mem_st][wb_icnt_rc] = 0
gpgpu_stall_shd_mem[g_mem_st][wb_rsrv_fail] = 0
gpgpu_stall_shd_mem[l_mem_ld][mshr_rc] = 0
gpgpu_stall_shd_mem[l_mem_ld][icnt_rc] = 0
gpgpu_stall_shd_mem[l_mem_ld][wb_icnt_rc] = 0
gpgpu_stall_shd_mem[l_mem_ld][wb_rsrv_fail] = 0
gpgpu_stall_shd_mem[l_mem_st][mshr_rc] = 0
gpgpu_stall_shd_mem[l_mem_st][icnt_rc] = 0
gpgpu_stall_shd_mem[l_mem_ld][wb_icnt_rc] = 0
gpgpu_stall_shd_mem[l_mem_ld][wb_rsrv_fail] = 0
gpgpu_stall_shd_mem[g_mem_ld][stream_buffer_read_stall] = 0
gpgpu_stall_shd_mem[g_mem_st][stream_buffer_write_stall] = 0
gpu_reg_bank_conflict_stalls = 0
Warp Occupancy Distribution:
Stall:0	W0_Idle:0	W0_Scoreboard:0	W1:0	W2:0	W3:0	W4:0	W5:0	W6:0	W7:0	W8:0
maxmrqlatency = 0 
maxdqlatency = 0 
maxmflatency = 0 
max_icnt2mem_latency = 0 
max_icnt2sh_latency = 0 
mrq_lat_table:0 	0 	0 	0 	0 	0 	0 	0 	0 	0 	0 	0 	0 	0 	0 	0 	0 	0 	0 	0 	0 	0 	0 	0 	0 	0 	0 	0 	0 	0 	0 	0 	
dq_lat_table:0 	0 	0 	0 	0 	0 	0 	0 	0 	0 	0 	0 	0 	0 	0 	0 	0 	0 	0 	0 	0 	0 	0 	0 	0 	0 	0 	0 	0 	0 	0 	0 	
mf_lat_table:0 	0 	0 	0 	0 	0 	0 	0 	0 	0 	0 	0 	0 	0 	0 	0 	0 	0 	0 	0 	0 	0 	0 	0 	0 	0 	0 	0 	0 	0 	0 	0 	
icnt2mem_lat_table:0 	0 	0 	0 	0 	0 	0 	0 	0 	0 	0 	0 	0 	0 	0 	0 	0 	0 	0 	0 	0 	0 	0 	0 	
icnt2sh_lat_table:0 	0 	0 	0 	0 	0 	0 	0 	0 	0 	0 	0 	0 	0 	0 	0 	0 	0 	0 	0 	0 	0 	0 	0 	
mf_lat_pw_table:0 	0 	0 	0 	0 	0 	0 	0 	0 	0 	0 	0 	0 	0 	0 	0 	0 	0 	0 	0 	0 	0 	0 	0 	0 	0 	0 	0 	0 	0 	0 	0 	
maximum concurrent accesses to same row:
dram[0]:         0         0         0         0         0         0         0         0         0         0         0         0         0         0         0         0 
dram[1]:         0         0         0         0         0         0         0         0         0         0         0         0         0         0         0         0 
dram[2]:         0         0         0         0         0         0         0         0         0         0         0         0         0         0         0         0 
dram[3]:         0         0         0         0         0         0         0         0         0         0         0         0         0         0         0         0 
dram[4]:         0         0         0         0         0         0         0         0         0         0         0         0         0         0         0         0 
dram[5]:         0         0         0         0         0         0         0         0         0         0         0         0         0         0         0         0 
maximum service time to same row:
dram[0]:         0         0         0         0         0         0         0         0         0         0         0         0         0         0         0         0 
dram[1]:         0         0         0         0         0         0         0         0         0         0         0         0         0         0         0         0 
dram[2]:         0         0         0         0         0         0         0         0         0         0         0         0         0         0         0         0 
dram[3]:         0         0         0         0         0         0         0         0         0         0         0         0         0         0         0         0 
dram[4]:         0         0         0         0         0         0         0         0         0         0         0         0         0         0         0         0 
dram[5]:         0         0         0         0         0         0         0         0         0         0         0         0         0         0         0         0 
average row accesses per activate:
dram[0]:      -nan      -nan      -nan      -nan      -nan      -nan      -nan      -nan      -nan      -nan      -nan      -nan      -nan      -nan      -nan      -nan 
dram[1]:      -nan      -nan      -nan      -nan      -nan      -nan      -nan      -nan      -nan      -nan      -nan      -nan      -nan      -nan      -nan      -nan 
dram[2]:      -nan      -nan      -nan      -nan      -nan      -nan      -nan      -nan      -nan      -nan      -nan      -nan      -nan      -nan      -nan      -nan 
dram[3]:      -nan      -nan      -nan      -nan      -nan      -nan      -nan      -nan      -nan      -nan      -nan      -nan      -nan      -nan      -nan      -nan 
dram[4]:      -nan      -nan      -nan      -nan      -nan      -nan      -nan      -nan      -nan      -nan      -nan      -nan      -nan      -nan      -nan      -nan 
dram[5]:      -nan      -nan      -nan      -nan      -nan      -nan      -nan      -nan      -nan      -nan      -nan      -nan      -nan      -nan      -nan      -nan 
average row locality = 0/0 = -nan
number of total memory accesses made:
dram[0]:         0         0         0         0         0         0         0         0         0         0         0         0         0         0         0         0 
dram[1]:         0         0         0         0         0         0         0         0         0         0         0         0         0         0         0         0 
dram[2]:         0         0         0         0         0         0         0         0         0         0         0         0         0         0         0         0 
dram[3]:         0         0         0         0         0         0         0         0         0         0         0         0         0         0         0         0 
dram[4]:         0         0         0         0         0         0         0         0         0         0         0         0         0         0         0         0 
dram[5]:         0         0         0         0         0         0         0         0         0         0         0         0         0         0         0         0 
total accesses: 0
min_bank_accesses = 0!
min_chip_accesses = 0!
number of total read accesses:
dram[0]:         0         0         0         0         0         0         0         0         0         0         0         0         0         0         0         0 
dram[1]:         0         0         0         0         0         0         0         0         0         0         0         0         0         0         0         0 
dram[2]:         0         0         0         0         0         0         0         0         0         0         0         0         0         0         0         0 
dram[3]:         0         0         0         0         0         0         0         0         0         0         0         0         0         0         0         0 
dram[4]:         0         0         0         0         0         0         0         0         0         0         0         0         0         0         0         0 
dram[5]:         0         0         0         0         0         0         0         0         0         0         0         0         0         0         0         0 
total reads: 0
min_bank_accesses = 0!
min_chip_accesses = 0!
number of total write accesses:
dram[0]:         0         0         0         0         0         0         0         0         0         0         0         0         0         0         0         0 
dram[1]:         0         0         0         0         0         0         0         0         0         0         0         0         0         0         0         0 
dram[2]:         0         0         0         0         0         0         0         0         0         0         0         0         0         0         0         0 
dram[3]:         0         0         0         0         0         0         0         0         0         0         0         0         0         0         0         0 
dram[4]:         0         0         0         0         0         0         0         0         0         0         0         0         0         0         0         0 
dram[5]:         0         0         0         0         0         0         0         0         0         0         0         0         0         0         0         0 
total reads: 0
min_bank_accesses = 0!
min_chip_accesses = 0!
average mf latency per bank:
dram[0]:     none      none      none      none      none      none      none      none      none      none      none      none      none      none      none      none  
dram[1]:     none      none      none      none      none      none      none      none      none      none      none      none      none      none      none      none  
dram[2]:     none      none      none      none      none      none      none      none      none      none      none      none      none      none      none      none  
dram[3]:     none      none      none      none      none      none      none      none      none      none      none      none      none      none      none      none  
dram[4]:     none      none      none      none      none      none      none      none      none      none      none      none      none      none      none      none  
dram[5]:     none      none      none      none      none      none      none      none      none      none      none      none      none      none      none      none  
maximum mf latency per bank:
dram[0]:          0         0         0         0         0         0         0         0         0         0         0         0         0         0         0         0
dram[1]:          0         0         0         0         0         0         0         0         0         0         0         0         0         0         0         0
dram[2]:          0         0         0         0         0         0         0         0         0         0         0         0         0         0         0         0
dram[3]:          0         0         0         0         0         0         0         0         0         0         0         0         0         0         0         0
dram[4]:          0         0         0         0         0         0         0         0         0         0         0         0         0         0         0         0
dram[5]:          0         0         0         0         0         0         0         0         0         0         0         0         0         0         0         0
Memory Partition 0: 
In Dram Latency Queue (total = 0): 
DRAM[0]: 16 bks, busW=4 BL=8 CL=12, tRRD=2 tCCD=6, tRCD=12 tRAS=28 tRP=12 tRC=40
n_cmd=0 n_nop=0 n_act=0 n_pre=0 n_req=0 n_rd=0 n_write=0 bw_util=-nan
n_activity=0 dram_eff=-nan
bk0: 0a 0i bk1: 0a 0i bk2: 0a 0i bk3: 0a 0i bk4: 0a 0i bk5: 0a 0i bk6: 0a 0i bk7: 0a 0i bk8: 0a 0i bk9: 0a 0i bk10: 0a 0i bk11: 0a 0i bk12: 0a 0i bk13: 0a 0i bk14: 0a 0i bk15: 0a 0i 
dram_util_bins: 0 0 0 0 0 0 0 0 0 0
dram_eff_bins: 0 0 0 0 0 0 0 0 0 0
mrqq: max=0 avg=-nan
Memory Partition 1: 
In Dram Latency Queue (total = 0): 
DRAM[1]: 16 bks, busW=4 BL=8 CL=12, tRRD=2 tCCD=6, tRCD=12 tRAS=28 tRP=12 tRC=40
n_cmd=0 n_nop=0 n_act=0 n_pre=0 n_req=0 n_rd=0 n_write=0 bw_util=-nan
n_activity=0 dram_eff=-nan
bk0: 0a 0i bk1: 0a 0i bk2: 0a 0i bk3: 0a 0i bk4: 0a 0i bk5: 0a 0i bk6: 0a 0i bk7: 0a 0i bk8: 0a 0i bk9: 0a 0i bk10: 0a 0i bk11: 0a 0i bk12: 0a 0i bk13: 0a 0i bk14: 0a 0i bk15: 0a 0i 
dram_util_bins: 0 0 0 0 0 0 0 0 0 0
dram_eff_bins: 0 0 0 0 0 0 0 0 0 0
mrqq: max=0 avg=-nan
Memory Partition 2: 
In Dram Latency Queue (total = 0): 
DRAM[2]: 16 bks, busW=4 BL=8 CL=12, tRRD=2 tCCD=6, tRCD=12 tRAS=28 tRP=12 tRC=40
n_cmd=0 n_nop=0 n_act=0 n_pre=0 n_req=0 n_rd=0 n_write=0 bw_util=-nan
n_activity=0 dram_eff=-nan
bk0: 0a 0i bk1: 0a 0i bk2: 0a 0i bk3: 0a 0i bk4: 0a 0i bk5: 0a 0i bk6: 0a 0i bk7: 0a 0i bk8: 0a 0i bk9: 0a 0i bk10: 0a 0i bk11: 0a 0i bk12: 0a 0i bk13: 0a 0i bk14: 0a 0i bk15: 0a 0i 
dram_util_bins: 0 0 0 0 0 0 0 0 0 0
dram_eff_bins: 0 0 0 0 0 0 0 0 0 0
mrqq: max=0 avg=-nan
Memory Partition 3: 
In Dram Latency Queue (total = 0): 
DRAM[3]: 16 bks, busW=4 BL=8 CL=12, tRRD=2 tCCD=6, tRCD=12 tRAS=28 tRP=12 tRC=40
n_cmd=0 n_nop=0 n_act=0 n_pre=0 n_req=0 n_rd=0 n_write=0 bw_util=-nan
n_activity=0 dram_eff=-nan
bk0: 0a 0i bk1: 0a 0i bk2: 0a 0i bk3: 0a 0i bk4: 0a 0i bk5: 0a 0i bk6: 0a 0i bk7: 0a 0i bk8: 0a 0i bk9: 0a 0i bk10: 0a 0i bk11: 0a 0i bk12: 0a 0i bk13: 0a 0i bk14: 0a 0i bk15: 0a 0i 
dram_util_bins: 0 0 0 0 0 0 0 0 0 0
dram_eff_bins: 0 0 0 0 0 0 0 0 0 0
mrqq: max=0 avg=-nan
Memory Partition 4: 
In Dram Latency Queue (total = 0): 
DRAM[4]: 16 bks, busW=4 BL=8 CL=12, tRRD=2 tCCD=6, tRCD=12 tRAS=28 tRP=12 tRC=40
n_cmd=0 n_nop=0 n_act=0 n_pre=0 n_req=0 n_rd=0 n_write=0 bw_util=-nan
n_activity=0 dram_eff=-nan
bk0: 0a 0i bk1: 0a 0i bk2: 0a 0i bk3: 0a 0i bk4: 0a 0i bk5: 0a 0i bk6: 0a 0i bk7: 0a 0i bk8: 0a 0i bk9: 0a 0i bk10: 0a 0i bk11: 0a 0i bk12: 0a 0i bk13: 0a 0i bk14: 0a 0i bk15: 0a 0i 
dram_util_bins: 0 0 0 0 0 0 0 0 0 0
dram_eff_bins: 0 0 0 0 0 0 0 0 0 0
mrqq: max=0 avg=-nan
Memory Partition 5: 
In Dram Latency Queue (total = 0): 
DRAM[5]: 16 bks, busW=4 BL=8 CL=12, tRRD=2 tCCD=6, tRCD=12 tRAS=28 tRP=12 tRC=40
n_cmd=0 n_nop=0 n_act=0 n_pre=0 n_req=0 n_rd=0 n_write=0 bw_util=-nan
n_activity=0 dram_eff=-nan
bk0: 0a 0i bk1: 0a 0i bk2: 0a 0i bk3: 0a 0i bk4: 0a 0i bk5: 0a 0i bk6: 0a 0i bk7: 0a 0i bk8: 0a 0i bk9: 0a 0i bk10: 0a 0i bk11: 0a 0i bk12: 0a 0i bk13: 0a 0i bk14: 0a 0i bk15: 0a 0i 
dram_util_bins: 0 0 0 0 0 0 0 0 0 0
dram_eff_bins: 0 0 0 0 0 0 0 0 0 0
mrqq: max=0 avg=-nan

icnt_total_pkts_mem_to_simt=0
icnt_total_pkts_simt_to_mem=0
LD_mem_lat_dist  0 0 0 0 0 0 0 0 0 0 0 0 0 0 0 0 0 0 0 0 0 0 0 0 0 0 0
ST_mem_lat_dist  0 0 0 0 0 0 0 0 0 0 0 0 0 0 0 0 0 0 0 0 0 0 0 0 0 0 0
----------------------------Interconnect-DETAILS--------------------------------
Class 0:
Packet latency average = -nan
	minimum = nan
	maximum = -nan
Network latency average = -nan
	minimum = nan
	maximum = -nan
Slowest packet = -1
Flit latency average = -nan
	minimum = nan
	maximum = -nan
Slowest flit = -1
Fragmentation average = -nan
	minimum = nan
	maximum = -nan
Injected packet rate average = -nan
	minimum = -nan (at node 0)
	maximum = -nan (at node 0)
Accepted packet rate average = -nan
	minimum = -nan (at node 0)
	maximum = -nan (at node 0)
Injected flit rate average = -nan
	minimum = -nan (at node 0)
	maximum = -nan (at node 0)
Accepted flit rate average= -nan
	minimum = -nan (at node 0)
	maximum = -nan (at node 0)
Injected packet length average = -nan
Accepted packet length average = -nan
Total in-flight flits = 0 (0 measured)
====== Overall Traffic Statistics ======
====== Traffic class 0 ======
Packet latency average = -nan (2 samples)
	minimum = nan (2 samples)
	maximum = -nan (2 samples)
Network latency average = -nan (2 samples)
	minimum = nan (2 samples)
	maximum = -nan (2 samples)
Flit latency average = -nan (2 samples)
	minimum = nan (2 samples)
	maximum = -nan (2 samples)
Fragmentation average = -nan (2 samples)
	minimum = nan (2 samples)
	maximum = -nan (2 samples)
Injected packet rate average = -nan (2 samples)
	minimum = -nan (2 samples)
	maximum = -nan (2 samples)
Accepted packet rate average = -nan (2 samples)
	minimum = -nan (2 samples)
	maximum = -nan (2 samples)
Injected flit rate average = -nan (2 samples)
	minimum = -nan (2 samples)
	maximum = -nan (2 samples)
Accepted flit rate average = -nan (2 samples)
	minimum = -nan (2 samples)
	maximum = -nan (2 samples)
Injected packet size average = -nan (2 samples)
Accepted packet size average = -nan (2 samples)
Hops average = -nan (2 samples)
----------------------------END-of-Interconnect-DETAILS-------------------------
kernel '_Z5saxpyjjjjjjjjjjjjPj' transfer to GPU hardware scheduler
Issue stall: Idle/Control Hazard: 0
GPGPU-Sim uArch: Shader 0 bind to kernel 1 '_Z5saxpyjjjjjjjjjjjjPj'
GPGPU-Sim uArch: CTA/core = 1, limited by: threads cta_limit
GPGPU-Sim uArch: core:  0, cta: 0 initialized @(1,0)
pc 4294967295: ldst_prefetch_read_unit: cycle: 1: pushed addr 100 to icnt for stream 0
Issue stall: Idle/Control Hazard: 1
Icache miss for insn: 0
pc 4294967295: ldst_prefetch_read_unit: cycle: 2: pushed addr 100 to icnt for stream 1
Issue stall: Idle/Control Hazard: 2
pc 4294967295: ldst_prefetch_read_unit: cycle: 3: pushed addr 100 to icnt for stream 2
Issue stall: Idle/Control Hazard: 3
pc 4294967295: ldst_prefetch_read_unit: cycle: 4: pushed addr 100 to icnt for stream 3
Issue stall: Idle/Control Hazard: 4
pc 4294967295: ldst_prefetch_read_unit: cycle: 5: pushed addr 100 to icnt for stream 4
Issue stall: Idle/Control Hazard: 5
pc 4294967295: ldst_prefetch_read_unit: cycle: 6: pushed addr 100 to icnt for stream 5
Issue stall: Idle/Control Hazard: 6
pc 4294967295: ldst_prefetch_read_unit: cycle: 7: pushed addr 100 to icnt for stream 6
Issue stall: Idle/Control Hazard: 7
pc 4294967295: ldst_prefetch_read_unit: cycle: 8: pushed addr 100 to icnt for stream 7
Issue stall: Idle/Control Hazard: 8
pc 4294967295: ldst_prefetch_read_unit: cycle: 9: pushed addr 104 to icnt for stream 0
Issue stall: Idle/Control Hazard: 9
pc 4294967295: ldst_prefetch_read_unit: cycle: 10: pushed addr 104 to icnt for stream 1
Issue stall: Idle/Control Hazard: 10
pc 4294967295: ldst_prefetch_read_unit: cycle: 11: pushed addr 104 to icnt for stream 2
Issue stall: Idle/Control Hazard: 11
pc 4294967295: ldst_prefetch_read_unit: cycle: 12: pushed addr 104 to icnt for stream 3
Issue stall: Idle/Control Hazard: 12
pc 4294967295: ldst_prefetch_read_unit: cycle: 13: pushed addr 104 to icnt for stream 4
Issue stall: Idle/Control Hazard: 13
pc 4294967295: ldst_prefetch_read_unit: cycle: 14: pushed addr 104 to icnt for stream 5
Issue stall: Idle/Control Hazard: 14
pc 4294967295: ldst_prefetch_read_unit: cycle: 15: pushed addr 104 to icnt for stream 6
Issue stall: Idle/Control Hazard: 15
pc 4294967295: ldst_prefetch_read_unit: cycle: 16: pushed addr 104 to icnt for stream 7
Issue stall: Idle/Control Hazard: 16
pc 4294967295: ldst_prefetch_read_unit: cycle: 17: pushed addr 108 to icnt for stream 0
Issue stall: Idle/Control Hazard: 17
pc 4294967295: ldst_prefetch_read_unit: cycle: 18: pushed addr 108 to icnt for stream 1
Issue stall: Idle/Control Hazard: 18
pc 4294967295: ldst_prefetch_read_unit: cycle: 19: pushed addr 108 to icnt for stream 2
Issue stall: Idle/Control Hazard: 19
pc 4294967295: ldst_prefetch_read_unit: cycle: 20: pushed addr 108 to icnt for stream 3
Issue stall: Idle/Control Hazard: 20
pc 4294967295: ldst_prefetch_read_unit: cycle: 21: pushed addr 108 to icnt for stream 4
Issue stall: Idle/Control Hazard: 21
pc 4294967295: ldst_prefetch_read_unit: cycle: 22: pushed addr 108 to icnt for stream 5
Issue stall: Idle/Control Hazard: 22
pc 4294967295: ldst_prefetch_read_unit: cycle: 23: pushed addr 108 to icnt for stream 6
Issue stall: Idle/Control Hazard: 23
pc 4294967295: ldst_prefetch_read_unit: cycle: 24: pushed addr 108 to icnt for stream 7
Issue stall: Idle/Control Hazard: 24
pc 4294967295: ldst_prefetch_read_unit: cycle: 25: pushed addr 112 to icnt for stream 0
Issue stall: Idle/Control Hazard: 25
pc 4294967295: ldst_prefetch_read_unit: cycle: 26: pushed addr 112 to icnt for stream 1
Issue stall: Idle/Control Hazard: 26
pc 4294967295: ldst_prefetch_read_unit: cycle: 27: pushed addr 112 to icnt for stream 2
Issue stall: Idle/Control Hazard: 27
pc 4294967295: ldst_prefetch_read_unit: cycle: 28: pushed addr 112 to icnt for stream 3
Issue stall: Idle/Control Hazard: 28
pc 4294967295: ldst_prefetch_read_unit: cycle: 29: pushed addr 112 to icnt for stream 4
Issue stall: Idle/Control Hazard: 29
pc 4294967295: ldst_prefetch_read_unit: cycle: 30: pushed addr 112 to icnt for stream 5
Issue stall: Idle/Control Hazard: 30
pc 4294967295: ldst_prefetch_read_unit: cycle: 31: pushed addr 112 to icnt for stream 6
Issue stall: Idle/Control Hazard: 31
pc 4294967295: ldst_prefetch_read_unit: cycle: 32: pushed addr 112 to icnt for stream 7
Issue stall: Idle/Control Hazard: 32
pc 4294967295: ldst_prefetch_read_unit: cycle: 33: pushed addr 116 to icnt for stream 0
Issue stall: Idle/Control Hazard: 33
pc 4294967295: ldst_prefetch_read_unit: cycle: 34: pushed addr 116 to icnt for stream 1
Issue stall: Idle/Control Hazard: 34
pc 4294967295: ldst_prefetch_read_unit: cycle: 35: pushed addr 116 to icnt for stream 2
Issue stall: Idle/Control Hazard: 35
pc 4294967295: ldst_prefetch_read_unit: cycle: 36: pushed addr 116 to icnt for stream 3
Issue stall: Idle/Control Hazard: 36
pc 4294967295: ldst_prefetch_read_unit: cycle: 37: pushed addr 116 to icnt for stream 4
Issue stall: Idle/Control Hazard: 37
pc 4294967295: ldst_prefetch_read_unit: cycle: 38: pushed addr 116 to icnt for stream 5
Issue stall: Idle/Control Hazard: 38
pc 4294967295: ldst_prefetch_read_unit: cycle: 39: pushed addr 116 to icnt for stream 6
Issue stall: Idle/Control Hazard: 39
pc 4294967295: ldst_prefetch_read_unit: cycle: 40: pushed addr 116 to icnt for stream 7
Issue stall: Idle/Control Hazard: 40
pc 4294967295: ldst_prefetch_read_unit: cycle: 41: pushed addr 120 to icnt for stream 0
Issue stall: Idle/Control Hazard: 41
pc 4294967295: ldst_prefetch_read_unit: cycle: 42: pushed addr 120 to icnt for stream 1
Issue stall: Idle/Control Hazard: 42
pc 4294967295: ldst_prefetch_read_unit: cycle: 43: pushed addr 120 to icnt for stream 2
Issue stall: Idle/Control Hazard: 43
pc 4294967295: ldst_prefetch_read_unit: cycle: 44: pushed addr 120 to icnt for stream 3
Issue stall: Idle/Control Hazard: 44
pc 4294967295: ldst_prefetch_read_unit: cycle: 45: pushed addr 120 to icnt for stream 4
Issue stall: Idle/Control Hazard: 45
pc 4294967295: ldst_prefetch_read_unit: cycle: 46: pushed addr 120 to icnt for stream 5
Issue stall: Idle/Control Hazard: 46
pc 4294967295: ldst_prefetch_read_unit: cycle: 47: pushed addr 120 to icnt for stream 6
Issue stall: Idle/Control Hazard: 47
pc 4294967295: ldst_prefetch_read_unit: cycle: 48: pushed addr 120 to icnt for stream 7
Issue stall: Idle/Control Hazard: 48
pc 4294967295: ldst_prefetch_read_unit: cycle: 49: pushed addr 124 to icnt for stream 0
Issue stall: Idle/Control Hazard: 49
pc 4294967295: ldst_prefetch_read_unit: cycle: 50: pushed addr 124 to icnt for stream 1
Issue stall: Idle/Control Hazard: 50
pc 4294967295: ldst_prefetch_read_unit: cycle: 51: pushed addr 124 to icnt for stream 2
Issue stall: Idle/Control Hazard: 51
pc 4294967295: ldst_prefetch_read_unit: cycle: 52: pushed addr 124 to icnt for stream 3
Issue stall: Idle/Control Hazard: 52
pc 4294967295: ldst_prefetch_read_unit: cycle: 53: pushed addr 124 to icnt for stream 4
Issue stall: Idle/Control Hazard: 53
pc 4294967295: ldst_prefetch_read_unit: cycle: 54: pushed addr 124 to icnt for stream 5
Issue stall: Idle/Control Hazard: 54
pc 4294967295: ldst_prefetch_read_unit: cycle: 55: pushed addr 124 to icnt for stream 6
Issue stall: Idle/Control Hazard: 55
pc 4294967295: ldst_prefetch_read_unit: cycle: 56: pushed addr 124 to icnt for stream 7
Issue stall: Idle/Control Hazard: 56
pc 4294967295: ldst_prefetch_read_unit: cycle: 57: pushed addr 128 to icnt for stream 0
Issue stall: Idle/Control Hazard: 57
pc 4294967295: ldst_prefetch_read_unit: cycle: 58: pushed addr 128 to icnt for stream 1
Issue stall: Idle/Control Hazard: 58
pc 4294967295: ldst_prefetch_read_unit: cycle: 59: pushed addr 128 to icnt for stream 2
Issue stall: Idle/Control Hazard: 59
pc 4294967295: ldst_prefetch_read_unit: cycle: 60: pushed addr 128 to icnt for stream 3
Issue stall: Idle/Control Hazard: 60
pc 4294967295: ldst_prefetch_read_unit: cycle: 61: pushed addr 128 to icnt for stream 4
Issue stall: Idle/Control Hazard: 61
pc 4294967295: ldst_prefetch_read_unit: cycle: 62: pushed addr 128 to icnt for stream 5
Issue stall: Idle/Control Hazard: 62
pc 4294967295: ldst_prefetch_read_unit: cycle: 63: pushed addr 128 to icnt for stream 6
Issue stall: Idle/Control Hazard: 63
pc 4294967295: ldst_prefetch_read_unit: cycle: 64: pushed addr 128 to icnt for stream 7
Issue stall: Idle/Control Hazard: 64
pc 4294967295: ldst_prefetch_read_unit: cycle: 65: pushed addr 132 to icnt for stream 0
Issue stall: Idle/Control Hazard: 65
pc 4294967295: ldst_prefetch_read_unit: cycle: 66: pushed addr 132 to icnt for stream 1
Issue stall: Idle/Control Hazard: 66
pc 4294967295: ldst_prefetch_read_unit: cycle: 67: pushed addr 132 to icnt for stream 2
Issue stall: Idle/Control Hazard: 67
pc 4294967295: ldst_prefetch_read_unit: cycle: 68: pushed addr 132 to icnt for stream 3
Issue stall: Idle/Control Hazard: 68
pc 4294967295: ldst_prefetch_read_unit: cycle: 69: pushed addr 132 to icnt for stream 4
Issue stall: Idle/Control Hazard: 69
pc 4294967295: ldst_prefetch_read_unit: cycle: 70: pushed addr 132 to icnt for stream 5
Issue stall: Idle/Control Hazard: 70
pc 4294967295: ldst_prefetch_read_unit: cycle: 71: pushed addr 132 to icnt for stream 6
Issue stall: Idle/Control Hazard: 71
pc 4294967295: ldst_prefetch_read_unit: cycle: 72: pushed addr 132 to icnt for stream 7
Issue stall: Idle/Control Hazard: 72
pc 4294967295: ldst_prefetch_read_unit: cycle: 73: pushed addr 136 to icnt for stream 0
Issue stall: Idle/Control Hazard: 73
pc 4294967295: ldst_prefetch_read_unit: cycle: 74: pushed addr 136 to icnt for stream 1
Issue stall: Idle/Control Hazard: 74
pc 4294967295: ldst_prefetch_read_unit: cycle: 75: pushed addr 136 to icnt for stream 2
Issue stall: Idle/Control Hazard: 75
pc 4294967295: ldst_prefetch_read_unit: cycle: 76: pushed addr 136 to icnt for stream 3
Issue stall: Idle/Control Hazard: 76
pc 4294967295: ldst_prefetch_read_unit: cycle: 77: pushed addr 136 to icnt for stream 4
Issue stall: Idle/Control Hazard: 77
pc 4294967295: ldst_prefetch_read_unit: cycle: 78: pushed addr 136 to icnt for stream 5
Issue stall: Idle/Control Hazard: 78
pc 4294967295: ldst_prefetch_read_unit: cycle: 79: pushed addr 136 to icnt for stream 6
Issue stall: Idle/Control Hazard: 79
pc 4294967295: ldst_prefetch_read_unit: cycle: 80: pushed addr 136 to icnt for stream 7
Issue stall: Idle/Control Hazard: 80
pc 4294967295: ldst_prefetch_read_unit: cycle: 81: pushed addr 140 to icnt for stream 0
Issue stall: Idle/Control Hazard: 81
pc 4294967295: ldst_prefetch_read_unit: cycle: 82: pushed addr 140 to icnt for stream 1
Issue stall: Idle/Control Hazard: 82
pc 4294967295: ldst_prefetch_read_unit: cycle: 83: pushed addr 140 to icnt for stream 2
Issue stall: Idle/Control Hazard: 83
pc 4294967295: ldst_prefetch_read_unit: cycle: 84: pushed addr 140 to icnt for stream 3
Issue stall: Idle/Control Hazard: 84
pc 4294967295: ldst_prefetch_read_unit: cycle: 85: pushed addr 140 to icnt for stream 4
Issue stall: Idle/Control Hazard: 85
pc 4294967295: ldst_prefetch_read_unit: cycle: 86: pushed addr 140 to icnt for stream 5
Issue stall: Idle/Control Hazard: 86
pc 4294967295: ldst_prefetch_read_unit: cycle: 87: pushed addr 140 to icnt for stream 6
Issue stall: Idle/Control Hazard: 87
pc 4294967295: ldst_prefetch_read_unit: cycle: 88: pushed addr 140 to icnt for stream 7
Issue stall: Idle/Control Hazard: 88
pc 4294967295: ldst_prefetch_read_unit: cycle: 89: pushed addr 144 to icnt for stream 0
Issue stall: Idle/Control Hazard: 89
pc 4294967295: ldst_prefetch_read_unit: cycle: 90: pushed addr 144 to icnt for stream 1
Issue stall: Idle/Control Hazard: 90
pc 4294967295: ldst_prefetch_read_unit: cycle: 91: pushed addr 144 to icnt for stream 2
Issue stall: Idle/Control Hazard: 91
pc 4294967295: ldst_prefetch_read_unit: cycle: 92: pushed addr 144 to icnt for stream 3
Issue stall: Idle/Control Hazard: 92
pc 4294967295: ldst_prefetch_read_unit: cycle: 93: pushed addr 144 to icnt for stream 4
Issue stall: Idle/Control Hazard: 93
pc 4294967295: ldst_prefetch_read_unit: cycle: 94: pushed addr 144 to icnt for stream 5
Issue stall: Idle/Control Hazard: 94
pc 4294967295: ldst_prefetch_read_unit: cycle: 95: pushed addr 144 to icnt for stream 6
Issue stall: Idle/Control Hazard: 95
pc 4294967295: ldst_prefetch_read_unit: cycle: 96: pushed addr 144 to icnt for stream 7
Issue stall: Idle/Control Hazard: 96
pc 4294967295: ldst_prefetch_read_unit: cycle: 97: pushed addr 148 to icnt for stream 0
Issue stall: Idle/Control Hazard: 97
pc 4294967295: ldst_prefetch_read_unit: cycle: 98: pushed addr 148 to icnt for stream 1
Issue stall: Idle/Control Hazard: 98
pc 4294967295: ldst_prefetch_read_unit: cycle: 99: pushed addr 148 to icnt for stream 2
Issue stall: Idle/Control Hazard: 99
pc 4294967295: ldst_prefetch_read_unit: cycle: 100: pushed addr 148 to icnt for stream 3
Issue stall: Idle/Control Hazard: 100
pc 4294967295: ldst_prefetch_read_unit: cycle: 101: pushed addr 148 to icnt for stream 4
Issue stall: Idle/Control Hazard: 101
pc 4294967295: ldst_prefetch_read_unit: cycle: 102: pushed addr 148 to icnt for stream 5
Issue stall: Idle/Control Hazard: 102
pc 4294967295: ldst_prefetch_read_unit: cycle: 103: pushed addr 148 to icnt for stream 6
Issue stall: Idle/Control Hazard: 103
pc 4294967295: ldst_prefetch_read_unit: cycle: 104: pushed addr 148 to icnt for stream 7
Issue stall: Idle/Control Hazard: 104
pc 4294967295: ldst_prefetch_read_unit: cycle: 105: pushed addr 152 to icnt for stream 0
Issue stall: Idle/Control Hazard: 105
pc 4294967295: ldst_prefetch_read_unit: cycle: 106: pushed addr 152 to icnt for stream 1
Issue stall: Idle/Control Hazard: 106
pc 4294967295: ldst_prefetch_read_unit: cycle: 107: pushed addr 152 to icnt for stream 2
Issue stall: Idle/Control Hazard: 107
pc 4294967295: ldst_prefetch_read_unit: cycle: 108: pushed addr 152 to icnt for stream 3
Issue stall: Idle/Control Hazard: 108
pc 4294967295: ldst_prefetch_read_unit: cycle: 109: pushed addr 152 to icnt for stream 4
Issue stall: Idle/Control Hazard: 109
pc 4294967295: ldst_prefetch_read_unit: cycle: 110: pushed addr 152 to icnt for stream 5
Issue stall: Idle/Control Hazard: 110
pc 4294967295: ldst_prefetch_read_unit: cycle: 111: pushed addr 152 to icnt for stream 6
Issue stall: Idle/Control Hazard: 111
pc 4294967295: ldst_prefetch_read_unit: cycle: 112: pushed addr 152 to icnt for stream 7
Issue stall: Idle/Control Hazard: 112
pc 4294967295: ldst_prefetch_read_unit: cycle: 113: pushed addr 156 to icnt for stream 0
Issue stall: Idle/Control Hazard: 113
pc 4294967295: ldst_prefetch_read_unit: cycle: 114: pushed addr 156 to icnt for stream 1
Issue stall: Idle/Control Hazard: 114
pc 4294967295: ldst_prefetch_read_unit: cycle: 115: pushed addr 156 to icnt for stream 2
Issue stall: Idle/Control Hazard: 115
pc 4294967295: ldst_prefetch_read_unit: cycle: 116: pushed addr 156 to icnt for stream 3
Issue stall: Idle/Control Hazard: 116
pc 4294967295: ldst_prefetch_read_unit: cycle: 117: pushed addr 156 to icnt for stream 4
Issue stall: Idle/Control Hazard: 117
pc 4294967295: ldst_prefetch_read_unit: cycle: 118: pushed addr 156 to icnt for stream 5
Issue stall: Idle/Control Hazard: 118
pc 4294967295: ldst_prefetch_read_unit: cycle: 119: pushed addr 156 to icnt for stream 6
Issue stall: Idle/Control Hazard: 119
pc 4294967295: ldst_prefetch_read_unit: cycle: 120: pushed addr 156 to icnt for stream 7
Issue stall: Idle/Control Hazard: 120
pc 4294967295: ldst_prefetch_read_unit: cycle: 121: pushed addr 160 to icnt for stream 0
Issue stall: Idle/Control Hazard: 121
pc 4294967295: ldst_prefetch_read_unit: cycle: 122: pushed addr 160 to icnt for stream 1
Issue stall: Idle/Control Hazard: 122
pc 4294967295: ldst_prefetch_read_unit: cycle: 123: pushed addr 160 to icnt for stream 2
Issue stall: Idle/Control Hazard: 123
pc 4294967295: ldst_prefetch_read_unit: cycle: 124: pushed addr 160 to icnt for stream 3
Issue stall: Idle/Control Hazard: 124
pc 4294967295: ldst_prefetch_read_unit: cycle: 125: pushed addr 160 to icnt for stream 4
Issue stall: Idle/Control Hazard: 125
pc 4294967295: ldst_prefetch_read_unit: cycle: 126: pushed addr 160 to icnt for stream 5
Issue stall: Idle/Control Hazard: 126
pc 4294967295: ldst_prefetch_read_unit: cycle: 127: pushed addr 160 to icnt for stream 6
Issue stall: Idle/Control Hazard: 127
pc 4294967295: ldst_prefetch_read_unit: cycle: 128: pushed addr 160 to icnt for stream 7
Issue stall: Idle/Control Hazard: 128
pc 4294967295: ldst_prefetch_read_unit: cycle: 129: pushed addr 164 to icnt for stream 0
Issue stall: Idle/Control Hazard: 129
pc 4294967295: ldst_prefetch_read_unit: cycle: 130: pushed addr 164 to icnt for stream 1
Issue stall: Idle/Control Hazard: 130
pc 4294967295: ldst_prefetch_read_unit: cycle: 131: pushed addr 164 to icnt for stream 2
Issue stall: Idle/Control Hazard: 131
pc 4294967295: ldst_prefetch_read_unit: cycle: 132: pushed addr 164 to icnt for stream 3
Issue stall: Idle/Control Hazard: 132
pc 4294967295: ldst_prefetch_read_unit: cycle: 133: pushed addr 164 to icnt for stream 4
Issue stall: Idle/Control Hazard: 133
pc 4294967295: ldst_prefetch_read_unit: cycle: 134: pushed addr 164 to icnt for stream 5
Issue stall: Idle/Control Hazard: 134
pc 4294967295: ldst_prefetch_read_unit: cycle: 135: pushed addr 164 to icnt for stream 6
Issue stall: Idle/Control Hazard: 135
pc 4294967295: ldst_prefetch_read_unit: cycle: 136: pushed addr 164 to icnt for stream 7
Issue stall: Idle/Control Hazard: 136
pc 4294967295: ldst_prefetch_read_unit: cycle: 137: pushed addr 168 to icnt for stream 0
Issue stall: Idle/Control Hazard: 137
pc 4294967295: ldst_prefetch_read_unit: cycle: 138: pushed addr 168 to icnt for stream 1
Issue stall: Idle/Control Hazard: 138
pc 4294967295: ldst_prefetch_read_unit: cycle: 139: pushed addr 168 to icnt for stream 2
Issue stall: Idle/Control Hazard: 139
pc 4294967295: ldst_prefetch_read_unit: cycle: 140: pushed addr 168 to icnt for stream 3
Issue stall: Idle/Control Hazard: 140
pc 4294967295: ldst_prefetch_read_unit: cycle: 141: pushed addr 168 to icnt for stream 4
Issue stall: Idle/Control Hazard: 141
pc 4294967295: ldst_prefetch_read_unit: cycle: 142: pushed addr 168 to icnt for stream 5
Issue stall: Idle/Control Hazard: 142
pc 4294967295: ldst_prefetch_read_unit: cycle: 143: pushed addr 168 to icnt for stream 6
Issue stall: Idle/Control Hazard: 143
pc 4294967295: ldst_prefetch_read_unit: cycle: 144: pushed addr 168 to icnt for stream 7
Issue stall: Idle/Control Hazard: 144
pc 4294967295: ldst_prefetch_read_unit: cycle: 145: pushed addr 172 to icnt for stream 0
Issue stall: Idle/Control Hazard: 145
pc 4294967295: ldst_prefetch_read_unit: cycle: 146: pushed addr 172 to icnt for stream 1
Issue stall: Idle/Control Hazard: 146
pc 4294967295: ldst_prefetch_read_unit: cycle: 147: pushed addr 172 to icnt for stream 2
Issue stall: Idle/Control Hazard: 147
pc 4294967295: ldst_prefetch_read_unit: cycle: 148: pushed addr 172 to icnt for stream 3
Issue stall: Idle/Control Hazard: 148
pc 4294967295: ldst_prefetch_read_unit: cycle: 149: pushed addr 172 to icnt for stream 4
Issue stall: Idle/Control Hazard: 149
pc 4294967295: ldst_prefetch_read_unit: cycle: 150: pushed addr 172 to icnt for stream 5
Issue stall: Idle/Control Hazard: 150
pc 4294967295: ldst_prefetch_read_unit: cycle: 151: pushed addr 172 to icnt for stream 6
Issue stall: Idle/Control Hazard: 151
pc 4294967295: ldst_prefetch_read_unit: cycle: 152: pushed addr 172 to icnt for stream 7
Issue stall: Idle/Control Hazard: 152
pc 4294967295: ldst_prefetch_read_unit: cycle: 153: pushed addr 176 to icnt for stream 0
Issue stall: Idle/Control Hazard: 153
pc 4294967295: ldst_prefetch_read_unit: cycle: 154: pushed addr 176 to icnt for stream 1
Issue stall: Idle/Control Hazard: 154
pc 4294967295: ldst_prefetch_read_unit: cycle: 155: pushed addr 176 to icnt for stream 2
Issue stall: Idle/Control Hazard: 155
pc 4294967295: ldst_prefetch_read_unit: cycle: 156: pushed addr 176 to icnt for stream 3
Issue stall: Idle/Control Hazard: 156
pc 4294967295: ldst_prefetch_read_unit: cycle: 157: pushed addr 176 to icnt for stream 4
Issue stall: Idle/Control Hazard: 157
pc 4294967295: ldst_prefetch_read_unit: cycle: 158: pushed addr 176 to icnt for stream 5
Issue stall: Idle/Control Hazard: 158
pc 4294967295: ldst_prefetch_read_unit: cycle: 159: pushed addr 176 to icnt for stream 6
Issue stall: Idle/Control Hazard: 159
pc 4294967295: ldst_prefetch_read_unit: cycle: 160: pushed addr 176 to icnt for stream 7
Issue stall: Idle/Control Hazard: 160
pc 4294967295: ldst_prefetch_read_unit: cycle: 161: pushed addr 180 to icnt for stream 0
Issue stall: Idle/Control Hazard: 161
pc 4294967295: ldst_prefetch_read_unit: cycle: 162: pushed addr 180 to icnt for stream 1
Issue stall: Idle/Control Hazard: 162
pc 4294967295: ldst_prefetch_read_unit: cycle: 163: pushed addr 180 to icnt for stream 2
Issue stall: Idle/Control Hazard: 163
pc 4294967295: ldst_prefetch_read_unit: cycle: 164: pushed addr 180 to icnt for stream 3
Issue stall: Idle/Control Hazard: 164
pc 4294967295: ldst_prefetch_read_unit: cycle: 165: pushed addr 180 to icnt for stream 4
Issue stall: Idle/Control Hazard: 165
pc 4294967295: ldst_prefetch_read_unit: cycle: 166: pushed addr 180 to icnt for stream 5
Issue stall: Idle/Control Hazard: 166
pc 4294967295: ldst_prefetch_read_unit: cycle: 167: pushed addr 180 to icnt for stream 6
Issue stall: Idle/Control Hazard: 167
pc 4294967295: ldst_prefetch_read_unit: cycle: 168: pushed addr 180 to icnt for stream 7
Issue stall: Idle/Control Hazard: 168
pc 4294967295: ldst_prefetch_read_unit: cycle: 169: pushed addr 184 to icnt for stream 0
Issue stall: Idle/Control Hazard: 169
pc 4294967295: ldst_prefetch_read_unit: cycle: 170: pushed addr 184 to icnt for stream 1
Issue stall: Idle/Control Hazard: 170
pc 4294967295: ldst_prefetch_read_unit: cycle: 171: pushed addr 184 to icnt for stream 2
Issue stall: Idle/Control Hazard: 171
pc 4294967295: ldst_prefetch_read_unit: cycle: 172: pushed addr 184 to icnt for stream 3
Issue stall: Idle/Control Hazard: 172
pc 4294967295: ldst_prefetch_read_unit: cycle: 173: pushed addr 184 to icnt for stream 4
Issue stall: Idle/Control Hazard: 173
pc 4294967295: ldst_prefetch_read_unit: cycle: 174: pushed addr 184 to icnt for stream 5
Issue stall: Idle/Control Hazard: 174
pc 4294967295: ldst_prefetch_read_unit: cycle: 175: pushed addr 184 to icnt for stream 6
Issue stall: Idle/Control Hazard: 175
pc 4294967295: ldst_prefetch_read_unit: cycle: 176: pushed addr 184 to icnt for stream 7
Issue stall: Idle/Control Hazard: 176
pc 4294967295: ldst_prefetch_read_unit: cycle: 177: pushed addr 188 to icnt for stream 0
Issue stall: Idle/Control Hazard: 177
pc 4294967295: ldst_prefetch_read_unit: cycle: 178: pushed addr 188 to icnt for stream 1
Issue stall: Idle/Control Hazard: 178
pc 4294967295: ldst_prefetch_read_unit: cycle: 179: pushed addr 188 to icnt for stream 2
Issue stall: Idle/Control Hazard: 179
pc 4294967295: ldst_prefetch_read_unit: cycle: 180: pushed addr 188 to icnt for stream 3
Issue stall: Idle/Control Hazard: 180
pc 4294967295: ldst_prefetch_read_unit: cycle: 181: pushed addr 188 to icnt for stream 4
Issue stall: Idle/Control Hazard: 181
pc 4294967295: ldst_prefetch_read_unit: cycle: 182: pushed addr 188 to icnt for stream 5
Issue stall: Idle/Control Hazard: 182
pc 4294967295: ldst_prefetch_read_unit: cycle: 183: pushed addr 188 to icnt for stream 6
Issue stall: Idle/Control Hazard: 183
pc 4294967295: ldst_prefetch_read_unit: cycle: 184: pushed addr 188 to icnt for stream 7
Issue stall: Idle/Control Hazard: 184
pc 4294967295: ldst_prefetch_read_unit: cycle: 185: pushed addr 192 to icnt for stream 0
Issue stall: Idle/Control Hazard: 185
pc 4294967295: ldst_prefetch_read_unit: cycle: 186: pushed addr 192 to icnt for stream 1
Issue stall: Idle/Control Hazard: 186
pc 4294967295: ldst_prefetch_read_unit: cycle: 187: pushed addr 192 to icnt for stream 2
Issue stall: Idle/Control Hazard: 187
pc 4294967295: ldst_prefetch_read_unit: cycle: 188: pushed addr 192 to icnt for stream 3
Issue stall: Idle/Control Hazard: 188
pc 4294967295: ldst_prefetch_read_unit: cycle: 189: pushed addr 192 to icnt for stream 4
Issue stall: Idle/Control Hazard: 189
pc 4294967295: ldst_prefetch_read_unit: cycle: 190: pushed addr 192 to icnt for stream 5
Issue stall: Idle/Control Hazard: 190
pc 4294967295: ldst_prefetch_read_unit: cycle: 191: pushed addr 192 to icnt for stream 6
Issue stall: Idle/Control Hazard: 191
pc 4294967295: ldst_prefetch_read_unit: cycle: 192: pushed addr 192 to icnt for stream 7
Issue stall: Idle/Control Hazard: 192
pc 4294967295: ldst_prefetch_read_unit: cycle: 193: pushed addr 196 to icnt for stream 0
Issue stall: Idle/Control Hazard: 193
pc 4294967295: ldst_prefetch_read_unit: cycle: 194: pushed addr 196 to icnt for stream 1
Issue stall: Idle/Control Hazard: 194
pc 4294967295: ldst_prefetch_read_unit: cycle: 195: pushed addr 196 to icnt for stream 2
Issue stall: Idle/Control Hazard: 195
pc 4294967295: ldst_prefetch_read_unit: cycle: 196: pushed addr 196 to icnt for stream 3
Issue stall: Idle/Control Hazard: 196
pc 4294967295: ldst_prefetch_read_unit: cycle: 197: pushed addr 196 to icnt for stream 4
Issue stall: Idle/Control Hazard: 197
pc 4294967295: ldst_prefetch_read_unit: cycle: 198: pushed addr 196 to icnt for stream 5
Issue stall: Idle/Control Hazard: 198
pc 4294967295: ldst_prefetch_read_unit: cycle: 199: pushed addr 196 to icnt for stream 6
Issue stall: Idle/Control Hazard: 199
pc 4294967295: ldst_prefetch_read_unit: cycle: 200: pushed addr 196 to icnt for stream 7
Issue stall: Idle/Control Hazard: 200
pc 4294967295: ldst_prefetch_read_unit: cycle: 201: pushed addr 200 to icnt for stream 0
Issue stall: Idle/Control Hazard: 201
pc 4294967295: ldst_prefetch_read_unit: cycle: 202: pushed addr 200 to icnt for stream 1
Issue stall: Idle/Control Hazard: 202
pc 4294967295: ldst_prefetch_read_unit: cycle: 203: pushed addr 200 to icnt for stream 2
Issue stall: Idle/Control Hazard: 203
pc 4294967295: ldst_prefetch_read_unit: cycle: 204: pushed addr 200 to icnt for stream 3
Issue stall: Idle/Control Hazard: 204
pc 4294967295: ldst_prefetch_read_unit: cycle: 205: pushed addr 200 to icnt for stream 4
Issue stall: Idle/Control Hazard: 205
pc 4294967295: ldst_prefetch_read_unit: cycle: 206: pushed addr 200 to icnt for stream 5
Issue stall: Idle/Control Hazard: 206
pc 4294967295: ldst_prefetch_read_unit: cycle: 207: pushed addr 200 to icnt for stream 6
Issue stall: Idle/Control Hazard: 207
[...]
  mf: uid=  1158, sid00:w4294967295, part=2, addr=0x298, load , size=32, GLOBAL_R status = IN_PARTITION_ROP_DELAY (1297), 
  mf: uid=  1160, sid00:w4294967295, part=2, addr=0x2a0, load , size=32, GLOBAL_R status = IN_PARTITION_ROP_DELAY (1298), 
  mf: uid=  1476, sid00:w4294967295, part=2, addr=0x230, load , size=32, GLOBAL_R status = IN_PARTITION_ROP_DELAY (1304), 
  mf: uid=  1164, sid00:w4294967295, part=2, addr=0x2b0, load , size=32, GLOBAL_R status = IN_PARTITION_ROP_DELAY (1300), 
  mf: uid=  1168, sid00:w4294967295, part=2, addr=0x2c0, load , size=32, GLOBAL_R status = IN_PARTITION_ROP_DELAY (1302), 
  mf: uid=  1490, sid00:w4294967295, part=2, addr=0x238, load , size=32, GLOBAL_R status = IN_PARTITION_ROP_DELAY (1310), 
  mf: uid=  1497, sid00:w4294967295, part=2, addr=0x23c, load , size=32, GLOBAL_R status = IN_PARTITION_ROP_DELAY (1313), 
  mf: uid=  1502, sid00:w4294967295, part=2, addr=0x2d4, load , size=32, GLOBAL_R status = IN_PARTITION_ROP_DELAY (1315), 
  mf: uid=  1488, sid00:w4294967295, part=2, addr=0x2cc, load , size=32, GLOBAL_R status = IN_PARTITION_ROP_DELAY (1309), 
  mf: uid=  1485, sid00:w4294967295, part=2, addr=0x26c, load , size=32, GLOBAL_R status = IN_PARTITION_ROP_DELAY (1308), 
  mf: uid=  1499, sid00:w4294967295, part=2, addr=0x274, load , size=32, GLOBAL_R status = IN_PARTITION_ROP_DELAY (1314), 
  mf: uid=  1479, sid00:w4294967295, part=2, addr=0x290, load , size=32, GLOBAL_R status = IN_PARTITION_ROP_DELAY (1305), 
  mf: uid=  1475, sid00:w4294967295, part=2, addr=0x228, load , size=32, GLOBAL_R status = IN_PARTITION_ROP_DELAY (1303), 
  mf: uid=  1561, sid00:w4294967295, part=2, addr=0x284, load , size=32, GLOBAL_R status = IN_PARTITION_ROP_DELAY (1372), 
  mf: uid=  1482, sid00:w4294967295, part=2, addr=0x22c, load , size=32, GLOBAL_R status = IN_PARTITION_ROP_DELAY (1306), 
  mf: uid=  1481, sid00:w4294967295, part=2, addr=0x2c8, load , size=32, GLOBAL_R status = IN_PARTITION_ROP_DELAY (1306), 
  mf: uid=  1492, sid00:w4294967295, part=2, addr=0x270, load , size=32, GLOBAL_R status = IN_PARTITION_ROP_DELAY (1311), 
  mf: uid=  1496, sid00:w4294967295, part=2, addr=0x234, load , size=32, GLOBAL_R status = IN_PARTITION_ROP_DELAY (1312), 
  mf: uid=  1518, sid00:w4294967295, part=2, addr=0x248, load , size=32, GLOBAL_R status = IN_PARTITION_ROP_DELAY (1329), 
  mf: uid=  1544, sid00:w4294967295, part=2, addr=0x2ec, load , size=32, GLOBAL_R status = IN_PARTITION_ROP_DELAY (1355), 
  mf: uid=  1567, sid00:w4294967295, part=2, addr=0x264, load , size=32, GLOBAL_R status = IN_PARTITION_ROP_DELAY (1378), 
  mf: uid=  1498, sid00:w4294967295, part=2, addr=0x260, load , size=32, GLOBAL_R status = IN_PARTITION_ROP_DELAY (1313), 
  mf: uid=  1507, sid00:w4294967295, part=2, addr=0x2a0, load , size=32, GLOBAL_R status = IN_PARTITION_ROP_DELAY (1318), 
  mf: uid=  1535, sid00:w4294967295, part=2, addr=0x2b0, load , size=32, GLOBAL_R status = IN_PARTITION_ROP_DELAY (1346), 
  mf: uid=  1514, sid00:w4294967295, part=2, addr=0x2a4, load , size=32, GLOBAL_R status = IN_PARTITION_ROP_DELAY (1325), 
  mf: uid=  1505, sid00:w4294967295, part=2, addr=0x264, load , size=32, GLOBAL_R status = IN_PARTITION_ROP_DELAY (1316), 
  mf: uid=  1509, sid00:w4294967295, part=2, addr=0x2d8, load , size=32, GLOBAL_R status = IN_PARTITION_ROP_DELAY (1320), 
  mf: uid=  1506, sid00:w4294967295, part=2, addr=0x278, load , size=32, GLOBAL_R status = IN_PARTITION_ROP_DELAY (1317), 
  mf: uid=  1511, sid00:w4294967295, part=2, addr=0x244, load , size=32, GLOBAL_R status = IN_PARTITION_ROP_DELAY (1322), 
  mf: uid=  1531, sid00:w4294967295, part=2, addr=0x248, load , size=32, GLOBAL_R status = IN_PARTITION_ROP_DELAY (1342), 
  mf: uid=  1523, sid00:w4294967295, part=2, addr=0x2e0, load , size=32, GLOBAL_R status = IN_PARTITION_ROP_DELAY (1334), 
  mf: uid=  1520, sid00:w4294967295, part=2, addr=0x280, load , size=32, GLOBAL_R status = IN_PARTITION_ROP_DELAY (1331), 
  mf: uid=  1527, sid00:w4294967295, part=2, addr=0x284, load , size=32, GLOBAL_R status = IN_PARTITION_ROP_DELAY (1338), 
  mf: uid=  1516, sid00:w4294967295, part=2, addr=0x2dc, load , size=32, GLOBAL_R status = IN_PARTITION_ROP_DELAY (1327), 
  mf: uid=  1517, sid00:w4294967295, part=2, addr=0x240, load , size=32, GLOBAL_R status = IN_PARTITION_ROP_DELAY (1328), 
  mf: uid=  1569, sid00:w4294967295, part=2, addr=0x29c, load , size=32, GLOBAL_R status = IN_PARTITION_ROP_DELAY (1380), 
  mf: uid=  1526, sid00:w4294967295, part=2, addr=0x270, load , size=32, GLOBAL_R status = IN_PARTITION_ROP_DELAY (1337), 
  mf: uid=  1525, sid00:w4294967295, part=2, addr=0x24c, load , size=32, GLOBAL_R status = IN_PARTITION_ROP_DELAY (1336), 
  mf: uid=  1532, sid00:w4294967295, part=2, addr=0x250, load , size=32, GLOBAL_R status = IN_PARTITION_ROP_DELAY (1343), 
  mf: uid=  1528, sid00:w4294967295, part=2, addr=0x2ac, load , size=32, GLOBAL_R status = IN_PARTITION_ROP_DELAY (1339), 
  mf: uid=  1563, sid00:w4294967295, part=2, addr=0x2c0, load , size=32, GLOBAL_R status = IN_PARTITION_ROP_DELAY (1374), 
  mf: uid=  1534, sid00:w4294967295, part=2, addr=0x288, load , size=32, GLOBAL_R status = IN_PARTITION_ROP_DELAY (1345), 
  mf: uid=  1537, sid00:w4294967295, part=2, addr=0x2e8, load , size=32, GLOBAL_R status = IN_PARTITION_ROP_DELAY (1348), 
  mf: uid=  1547, sid00:w4294967295, part=2, addr=0x27c, load , size=32, GLOBAL_R status = IN_PARTITION_ROP_DELAY (1358), 
  mf: uid=  1538, sid00:w4294967295, part=2, addr=0x24c, load , size=32, GLOBAL_R status = IN_PARTITION_ROP_DELAY (1349), 
  mf: uid=  1552, sid00:w4294967295, part=2, addr=0x254, load , size=32, GLOBAL_R status = IN_PARTITION_ROP_DELAY (1363), 
  mf: uid=  1539, sid00:w4294967295, part=2, addr=0x254, load , size=32, GLOBAL_R status = IN_PARTITION_ROP_DELAY (1350), 
  mf: uid=  1556, sid00:w4294967295, part=2, addr=0x2bc, load , size=32, GLOBAL_R status = IN_PARTITION_ROP_DELAY (1367), 
  mf: uid=  1540, sid00:w4294967295, part=2, addr=0x278, load , size=32, GLOBAL_R status = IN_PARTITION_ROP_DELAY (1351), 
  mf: uid=  1541, sid00:w4294967295, part=2, addr=0x28c, load , size=32, GLOBAL_R status = IN_PARTITION_ROP_DELAY (1352), 
  mf: uid=  1558, sid00:w4294967295, part=2, addr=0x2f4, load , size=32, GLOBAL_R status = IN_PARTITION_ROP_DELAY (1369), 
  mf: uid=  1542, sid00:w4294967295, part=2, addr=0x2b4, load , size=32, GLOBAL_R status = IN_PARTITION_ROP_DELAY (1353), 
  mf: uid=  1566, sid00:w4294967295, part=2, addr=0x25c, load , size=32, GLOBAL_R status = IN_PARTITION_ROP_DELAY (1377), 
  mf: uid=  1554, sid00:w4294967295, part=2, addr=0x280, load , size=32, GLOBAL_R status = IN_PARTITION_ROP_DELAY (1365), 
  mf: uid=  1548, sid00:w4294967295, part=2, addr=0x290, load , size=32, GLOBAL_R status = IN_PARTITION_ROP_DELAY (1359), 
  mf: uid=  1546, sid00:w4294967295, part=2, addr=0x258, load , size=32, GLOBAL_R status = IN_PARTITION_ROP_DELAY (1357), 
  mf: uid=  1570, sid00:w4294967295, part=2, addr=0x2c4, load , size=32, GLOBAL_R status = IN_PARTITION_ROP_DELAY (1381), 
  mf: uid=  1549, sid00:w4294967295, part=2, addr=0x2b8, load , size=32, GLOBAL_R status = IN_PARTITION_ROP_DELAY (1360), 
  mf: uid=  1562, sid00:w4294967295, part=2, addr=0x298, load , size=32, GLOBAL_R status = IN_PARTITION_ROP_DELAY (1373), 
  mf: uid=  1553, sid00:w4294967295, part=2, addr=0x25c, load , size=32, GLOBAL_R status = IN_PARTITION_ROP_DELAY (1364), 
  mf: uid=  1559, sid00:w4294967295, part=2, addr=0x258, load , size=32, GLOBAL_R status = IN_PARTITION_ROP_DELAY (1370), 
  mf: uid=  1565, sid00:w4294967295, part=2, addr=0x2f8, load , size=32, GLOBAL_R status = IN_PARTITION_ROP_DELAY (1376), 
  mf: uid=  1572, sid00:w4294967295, part=2, addr=0x2fc, load , size=32, GLOBAL_R status = IN_PARTITION_ROP_DELAY (1383), 
In Dram Latency Queue (total = 34): 
Ready @ 1385 -   mf: uid=  1091, sid00:w4294967295, part=2, addr=0x2d0, load , size=32, GLOBAL_R status = IN_PARTITION_DRAM_LATENCY_QUEUE (1285), 
Ready @ 1385 -   mf: uid=  1092, sid00:w4294967295, part=2, addr=0x2d4, load , size=32, GLOBAL_R status = IN_PARTITION_DRAM_LATENCY_QUEUE (1285), 
Ready @ 1386 -   mf: uid=  1093, sid00:w4294967295, part=2, addr=0x2d8, load , size=32, GLOBAL_R status = IN_PARTITION_DRAM_LATENCY_QUEUE (1286), 
Ready @ 1386 -   mf: uid=  1094, sid00:w4294967295, part=2, addr=0x2dc, load , size=32, GLOBAL_R status = IN_PARTITION_DRAM_LATENCY_QUEUE (1286), 
Ready @ 1387 -   mf: uid=  1095, sid00:w4294967295, part=2, addr=0x2e0, load , size=32, GLOBAL_R status = IN_PARTITION_DRAM_LATENCY_QUEUE (1287), 
Ready @ 1387 -   mf: uid=  1096, sid00:w4294967295, part=2, addr=0x2e4, load , size=32, GLOBAL_R status = IN_PARTITION_DRAM_LATENCY_QUEUE (1287), 
Ready @ 1388 -   mf: uid=  1097, sid00:w4294967295, part=2, addr=0x210, load , size=32, GLOBAL_R status = IN_PARTITION_DRAM_LATENCY_QUEUE (1288), 
Ready @ 1389 -   mf: uid=  1098, sid00:w4294967295, part=2, addr=0x23c, load , size=32, GLOBAL_R status = IN_PARTITION_DRAM_LATENCY_QUEUE (1289), 
Ready @ 1390 -   mf: uid=  1099, sid00:w4294967295, part=2, addr=0x258, load , size=32, GLOBAL_R status = IN_PARTITION_DRAM_LATENCY_QUEUE (1290), 
Ready @ 1391 -   mf: uid=  1100, sid00:w4294967295, part=2, addr=0x274, load , size=32, GLOBAL_R status = IN_PARTITION_DRAM_LATENCY_QUEUE (1291), 
Ready @ 1392 -   mf: uid=  1101, sid00:w4294967295, part=2, addr=0x2e8, load , size=32, GLOBAL_R status = IN_PARTITION_DRAM_LATENCY_QUEUE (1292), 
Ready @ 1393 -   mf: uid=  1102, sid00:w4294967295, part=2, addr=0x240, load , size=32, GLOBAL_R status = IN_PARTITION_DRAM_LATENCY_QUEUE (1293), 
Ready @ 1394 -   mf: uid=  1103, sid00:w4294967295, part=2, addr=0x25c, load , size=32, GLOBAL_R status = IN_PARTITION_DRAM_LATENCY_QUEUE (1294), 
Ready @ 1395 -   mf: uid=  1104, sid00:w4294967295, part=2, addr=0x278, load , size=32, GLOBAL_R status = IN_PARTITION_DRAM_LATENCY_QUEUE (1295), 
Ready @ 1396 -   mf: uid=  1105, sid00:w4294967295, part=2, addr=0x2ec, load , size=32, GLOBAL_R status = IN_PARTITION_DRAM_LATENCY_QUEUE (1296), 
Ready @ 1397 -   mf: uid=  1106, sid00:w4294967295, part=2, addr=0x260, load , size=32, GLOBAL_R status = IN_PARTITION_DRAM_LATENCY_QUEUE (1297), 
Ready @ 1398 -   mf: uid=  1107, sid00:w4294967295, part=2, addr=0x27c, load , size=32, GLOBAL_R status = IN_PARTITION_DRAM_LATENCY_QUEUE (1298), 
Ready @ 1399 -   mf: uid=  1108, sid00:w4294967295, part=2, addr=0x2f0, load , size=32, GLOBAL_R status = IN_PARTITION_DRAM_LATENCY_QUEUE (1299), 
Ready @ 1400 -   mf: uid=  1109, sid00:w4294967295, part=2, addr=0x280, load , size=32, GLOBAL_R status = IN_PARTITION_DRAM_LATENCY_QUEUE (1300), 
Ready @ 1401 -   mf: uid=  1110, sid00:w4294967295, part=2, addr=0x2f4, load , size=32, GLOBAL_R status = IN_PARTITION_DRAM_LATENCY_QUEUE (1301), 
Ready @ 1402 -   mf: uid=  1111, sid00:w4294967295, part=2, addr=0x2f8, load , size=32, GLOBAL_R status = IN_PARTITION_DRAM_LATENCY_QUEUE (1302), 
Ready @ 1404 -   mf: uid=  1112, sid00:w4294967295, part=2, addr=0x214, load , size=32, GLOBAL_R status = IN_PARTITION_DRAM_LATENCY_QUEUE (1304), 
Ready @ 1405 -   mf: uid=  1113, sid00:w4294967295, part=2, addr=0x244, load , size=32, GLOBAL_R status = IN_PARTITION_DRAM_LATENCY_QUEUE (1305), 
Ready @ 1406 -   mf: uid=  1114, sid00:w4294967295, part=2, addr=0x264, load , size=32, GLOBAL_R status = IN_PARTITION_DRAM_LATENCY_QUEUE (1306), 
Ready @ 1407 -   mf: uid=  1115, sid00:w4294967295, part=2, addr=0x284, load , size=32, GLOBAL_R status = IN_PARTITION_DRAM_LATENCY_QUEUE (1307), 
Ready @ 1408 -   mf: uid=  1116, sid00:w4294967295, part=2, addr=0x2fc, load , size=32, GLOBAL_R status = IN_PARTITION_DRAM_LATENCY_QUEUE (1308), 
Ready @ 1409 -   mf: uid=  1117, sid00:w4294967295, part=2, addr=0x288, load , size=32, GLOBAL_R status = IN_PARTITION_DRAM_LATENCY_QUEUE (1309), 
Ready @ 1413 -   mf: uid=  1120, sid00:w4294967295, part=2, addr=0x218, load , size=32, GLOBAL_R status = IN_PARTITION_DRAM_LATENCY_QUEUE (1313), 
Ready @ 1414 -   mf: uid=  1121, sid00:w4294967295, part=2, addr=0x28c, load , size=32, GLOBAL_R status = IN_PARTITION_DRAM_LATENCY_QUEUE (1314), 
Ready @ 1416 -   mf: uid=  1123, sid00:w4294967295, part=2, addr=0x21c, load , size=32, GLOBAL_R status = IN_PARTITION_DRAM_LATENCY_QUEUE (1316), 
Ready @ 1418 -   mf: uid=  1125, sid00:w4294967295, part=2, addr=0x220, load , size=32, GLOBAL_R status = IN_PARTITION_DRAM_LATENCY_QUEUE (1318), 
Ready @ 1419 -   mf: uid=  1126, sid00:w4294967295, part=2, addr=0x224, load , size=32, GLOBAL_R status = IN_PARTITION_DRAM_LATENCY_QUEUE (1319), 
Ready @ 1420 -   mf: uid=  1127, sid00:w4294967295, part=2, addr=0x228, load , size=32, GLOBAL_R status = IN_PARTITION_DRAM_LATENCY_QUEUE (1320), 
Ready @ 1421 -   mf: uid=  1128, sid00:w4294967295, part=2, addr=0x22c, load , size=32, GLOBAL_R status = IN_PARTITION_DRAM_LATENCY_QUEUE (1321), 
DRAM[2]: 16 bks, busW=4 BL=8 CL=12, tRRD=2 tCCD=6, tRCD=12 tRAS=28 tRP=12 tRC=40
n_cmd=0 n_nop=0 n_act=0 n_pre=0 n_req=0 n_rd=0 n_write=0 bw_util=-nan
n_activity=0 dram_eff=-nan
bk0: 0a 0i bk1: 0a 0i bk2: 0a 0i bk3: 0a 0i bk4: 0a 0i bk5: 0a 0i bk6: 0a 0i bk7: 0a 0i bk8: 0a 0i bk9: 0a 0i bk10: 0a 0i bk11: 0a 0i bk12: 0a 0i bk13: 0a 0i bk14: 0a 0i bk15: 0a 0i 
dram_util_bins: 0 0 0 0 0 0 0 0 0 0
dram_eff_bins: 0 0 0 0 0 0 0 0 0 0
mrqq: max=0 avg=-nan
Memory Partition 3: 
Memory Sub Parition 6: pending memory requests:
  mf: uid=  1529, sid00:w4294967295, part=3, addr=0x32c, load , size=32, GLOBAL_R status = IN_PARTITION_ROP_DELAY (1340), 
  mf: uid=  1122, sid00:w4294967295, part=3, addr=0x308, load , size=32, GLOBAL_R status = IN_PARTITION_DRAM_LATENCY_QUEUE (1315), 
  mf: uid=  1487, sid00:w4294967295, part=3, addr=0x314, load , size=32, GLOBAL_R status = IN_PARTITION_ROP_DELAY (1298), 
  mf: uid=  1119, sid00:w4294967295, part=3, addr=0x304, load , size=32, GLOBAL_R status = IN_PARTITION_DRAM_LATENCY_QUEUE (1311), 
  mf: uid=  1124, sid00:w4294967295, part=3, addr=0x30c, load , size=32, GLOBAL_R status = IN_PARTITION_DRAM_LATENCY_QUEUE (1317), 
  mf: uid=  1118, sid00:w4294967295, part=3, addr=0x300, load , size=32, GLOBAL_R status = IN_PARTITION_DRAM_LATENCY_QUEUE (1310), 
  mf: uid=  1480, sid00:w4294967295, part=3, addr=0x310, load , size=32, GLOBAL_R status = IN_PARTITION_ROP_DELAY (1295), 
  mf: uid=  1550, sid00:w4294967295, part=3, addr=0x338, load , size=32, GLOBAL_R status = IN_PARTITION_ROP_DELAY (1361), 
  mf: uid=  1508, sid00:w4294967295, part=3, addr=0x320, load , size=32, GLOBAL_R status = IN_PARTITION_ROP_DELAY (1319), 
  mf: uid=  1494, sid00:w4294967295, part=3, addr=0x318, load , size=32, GLOBAL_R status = IN_PARTITION_ROP_DELAY (1305), 
  mf: uid=  1515, sid00:w4294967295, part=3, addr=0x324, load , size=32, GLOBAL_R status = IN_PARTITION_ROP_DELAY (1326), 
  mf: uid=  1536, sid00:w4294967295, part=3, addr=0x330, load , size=32, GLOBAL_R status = IN_PARTITION_ROP_DELAY (1347), 
  mf: uid=  1501, sid00:w4294967295, part=3, addr=0x31c, load , size=32, GLOBAL_R status = IN_PARTITION_ROP_DELAY (1312), 
  mf: uid=  1571, sid00:w4294967295, part=3, addr=0x344, load , size=32, GLOBAL_R status = IN_PARTITION_ROP_DELAY (1382), 
  mf: uid=  1522, sid00:w4294967295, part=3, addr=0x328, load , size=32, GLOBAL_R status = IN_PARTITION_ROP_DELAY (1333), 
  mf: uid=  1557, sid00:w4294967295, part=3, addr=0x33c, load , size=32, GLOBAL_R status = IN_PARTITION_ROP_DELAY (1368), 
  mf: uid=  1543, sid00:w4294967295, part=3, addr=0x334, load , size=32, GLOBAL_R status = IN_PARTITION_ROP_DELAY (1354), 
  mf: uid=  1564, sid00:w4294967295, part=3, addr=0x340, load , size=32, GLOBAL_R status = IN_PARTITION_ROP_DELAY (1375), 
In Dram Latency Queue (total = 4): 
Ready @ 1410 -   mf: uid=  1118, sid00:w4294967295, part=3, addr=0x300, load , size=32, GLOBAL_R status = IN_PARTITION_DRAM_LATENCY_QUEUE (1310), 
Ready @ 1411 -   mf: uid=  1119, sid00:w4294967295, part=3, addr=0x304, load , size=32, GLOBAL_R status = IN_PARTITION_DRAM_LATENCY_QUEUE (1311), 
Ready @ 1415 -   mf: uid=  1122, sid00:w4294967295, part=3, addr=0x308, load , size=32, GLOBAL_R status = IN_PARTITION_DRAM_LATENCY_QUEUE (1315), 
Ready @ 1417 -   mf: uid=  1124, sid00:w4294967295, part=3, addr=0x30c, load , size=32, GLOBAL_R status = IN_PARTITION_DRAM_LATENCY_QUEUE (1317), 
DRAM[3]: 16 bks, busW=4 BL=8 CL=12, tRRD=2 tCCD=6, tRCD=12 tRAS=28 tRP=12 tRC=40
n_cmd=0 n_nop=0 n_act=0 n_pre=0 n_req=0 n_rd=0 n_write=0 bw_util=-nan
n_activity=0 dram_eff=-nan
bk0: 0a 0i bk1: 0a 0i bk2: 0a 0i bk3: 0a 0i bk4: 0a 0i bk5: 0a 0i bk6: 0a 0i bk7: 0a 0i bk8: 0a 0i bk9: 0a 0i bk10: 0a 0i bk11: 0a 0i bk12: 0a 0i bk13: 0a 0i bk14: 0a 0i bk15: 0a 0i 
dram_util_bins: 0 0 0 0 0 0 0 0 0 0
dram_eff_bins: 0 0 0 0 0 0 0 0 0 0
mrqq: max=0 avg=-nan
Memory Partition 4: 
In Dram Latency Queue (total = 0): 
DRAM[4]: 16 bks, busW=4 BL=8 CL=12, tRRD=2 tCCD=6, tRCD=12 tRAS=28 tRP=12 tRC=40
n_cmd=0 n_nop=0 n_act=0 n_pre=0 n_req=0 n_rd=0 n_write=0 bw_util=-nan
n_activity=0 dram_eff=-nan
bk0: 0a 0i bk1: 0a 0i bk2: 0a 0i bk3: 0a 0i bk4: 0a 0i bk5: 0a 0i bk6: 0a 0i bk7: 0a 0i bk8: 0a 0i bk9: 0a 0i bk10: 0a 0i bk11: 0a 0i bk12: 0a 0i bk13: 0a 0i bk14: 0a 0i bk15: 0a 0i 
dram_util_bins: 0 0 0 0 0 0 0 0 0 0
dram_eff_bins: 0 0 0 0 0 0 0 0 0 0
mrqq: max=0 avg=-nan
Memory Partition 5: 
In Dram Latency Queue (total = 0): 
DRAM[5]: 16 bks, busW=4 BL=8 CL=12, tRRD=2 tCCD=6, tRCD=12 tRAS=28 tRP=12 tRC=40
n_cmd=0 n_nop=0 n_act=0 n_pre=0 n_req=0 n_rd=0 n_write=0 bw_util=-nan
n_activity=0 dram_eff=-nan
bk0: 0a 0i bk1: 0a 0i bk2: 0a 0i bk3: 0a 0i bk4: 0a 0i bk5: 0a 0i bk6: 0a 0i bk7: 0a 0i bk8: 0a 0i bk9: 0a 0i bk10: 0a 0i bk11: 0a 0i bk12: 0a 0i bk13: 0a 0i bk14: 0a 0i bk15: 0a 0i 
dram_util_bins: 0 0 0 0 0 0 0 0 0 0
dram_eff_bins: 0 0 0 0 0 0 0 0 0 0
mrqq: max=0 avg=-nan

icnt_total_pkts_mem_to_simt=1999
icnt_total_pkts_simt_to_mem=1259
LD_mem_lat_dist  0 0 0 0 0 0 0 0 0 0 0 0 0 0 0 0 0 0 0 0 0 0 0 0 0 0 0
ST_mem_lat_dist  0 0 0 0 0 0 0 0 0 0 0 0 0 0 0 0 0 0 0 0 0 0 0 0 0 0 0
----------------------------Interconnect-DETAILS--------------------------------
Class 0:
Packet latency average = 28.1943
	minimum = 6
	maximum = 393
Network latency average = 20.8579
	minimum = 6
	maximum = 393
Slowest packet = 1988
Flit latency average = 23.8755
	minimum = 6
	maximum = 393
Slowest flit = 2853
Fragmentation average = 0.0424967
	minimum = 0
	maximum = 8
Injected packet rate average = 0.0210186
	minimum = 0 (at node 2)
	maximum = 0.151252 (at node 0)
Accepted packet rate average = 0.020926
	minimum = 0 (at node 2)
	maximum = 0.120906 (at node 0)
Injected flit rate average = 0.0304672
	minimum = 0 (at node 2)
	maximum = 0.151493 (at node 0)
Accepted flit rate average= 0.0302912
	minimum = 0 (at node 2)
	maximum = 0.242413 (at node 0)
Injected packet length average = 1.44954
Accepted packet length average = 1.44754
Total in-flight flits = 28 (28 measured)
====== Overall Traffic Statistics ======
====== Traffic class 0 ======
Packet latency average = -nan (3 samples)
	minimum = nan (3 samples)
	maximum = -nan (3 samples)
Network latency average = -nan (3 samples)
	minimum = nan (3 samples)
	maximum = -nan (3 samples)
Flit latency average = -nan (3 samples)
	minimum = nan (3 samples)
	maximum = -nan (3 samples)
Fragmentation average = -nan (3 samples)
	minimum = nan (3 samples)
	maximum = -nan (3 samples)
Injected packet rate average = -nan (3 samples)
	minimum = -nan (3 samples)
	maximum = -nan (3 samples)
Accepted packet rate average = -nan (3 samples)
	minimum = -nan (3 samples)
	maximum = -nan (3 samples)
Injected flit rate average = -nan (3 samples)
	minimum = -nan (3 samples)
	maximum = -nan (3 samples)
Accepted flit rate average = -nan (3 samples)
	minimum = -nan (3 samples)
	maximum = -nan (3 samples)
Injected packet size average = -nan (3 samples)
Accepted packet size average = -nan (3 samples)
Hops average = -nan (3 samples)
----------------------------END-of-Interconnect-DETAILS-------------------------
WARNING: Possible network deadlock.
WARNING: Possible network deadlock.
WARNING: Possible network deadlock.
WARNING: Possible network deadlock.
1
2
